version 3
run General-0-20251105-22:36:47-13264
attr configname General
attr datetime 20251105-22:36:47
attr datetimef 20251105-223647
attr experiment General
attr inifile omnetpp.ini
attr iterationvars ""
attr iterationvarsd ""
attr iterationvarsf ""
attr measurement ""
attr network networkNED
attr processid 13264
attr repetition 0
attr replication #0
attr resultdir results
attr runnumber 0
attr seedset 0
config image-path ../inet4.5/images
config network networkNED
config sim-time-limit 60s
config *.wirelessHost[*].wlan.mac.useRtsCts true
config *.wirelessHost[*].wlan.mac.rtsCtsThreshold 0B
config *.accessPoint.wlan.mac.useRtsCts true
config *.accessPoint.wlan.mac.maxQueueSize 10

par networkNED.radioMedium.propagation typename "\"inet.physicallayer.wireless.common.propagation.ConstantSpeedPropagation\""
par networkNED.radioMedium.propagation propagationSpeed 2.99792e+08mps
attr unit mps
par networkNED.radioMedium.propagation ignoreMovementDuringTransmission true
par networkNED.radioMedium.propagation ignoreMovementDuringPropagation true
par networkNED.radioMedium.propagation ignoreMovementDuringReception true
scalar networkNED.radioMedium.propagation "Arrival computation count" 40
par networkNED.radioMedium.analogModel typename "\"inet.physicallayer.wireless.common.analogmodel.packetlevel.ScalarAnalogModel\""
par networkNED.radioMedium.analogModel ignorePartialInterference false
par networkNED.radioMedium.backgroundNoise typename "\"inet.physicallayer.wireless.common.backgroundnoise.IsotropicScalarBackgroundNoise\""
par networkNED.radioMedium.backgroundNoise power -110dBm
attr unit dBm
par networkNED.radioMedium.backgroundNoise bandwidth "nan Hz"
attr unit Hz
par networkNED.radioMedium.pathLoss typename "\"inet.physicallayer.wireless.common.pathloss.FreeSpacePathLoss\""
par networkNED.radioMedium.pathLoss alpha 2
par networkNED.radioMedium.pathLoss systemLoss 0dB
attr unit dB
par networkNED.radioMedium.mediumLimitCache typename "\"inet.physicallayer.wireless.common.medium.MediumLimitCache\""
par networkNED.radioMedium.mediumLimitCache centerFrequency 2.4e+09Hz
attr unit Hz
par networkNED.radioMedium.mediumLimitCache maxSpeed "nan mps"
attr unit mps
par networkNED.radioMedium.mediumLimitCache maxTransmissionPower "nan W"
attr unit W
par networkNED.radioMedium.mediumLimitCache minInterferencePower -110dBm
attr unit dBm
par networkNED.radioMedium.mediumLimitCache minReceptionPower -85dBm
attr unit dBm
par networkNED.radioMedium.mediumLimitCache maxAntennaGain 0dB
attr unit dB
par networkNED.radioMedium.mediumLimitCache minInterferenceTime 1e-12s
attr unit s
par networkNED.radioMedium.mediumLimitCache maxTransmissionDuration 0.01s
attr unit s
par networkNED.radioMedium.mediumLimitCache maxCommunicationRange "nan m"
attr unit m
par networkNED.radioMedium.mediumLimitCache maxInterferenceRange "nan m"
attr unit m
par networkNED.radioMedium.communicationCache typename "\"inet.physicallayer.wireless.common.communicationcache.VectorCommunicationCache\""
par networkNED.radioMedium typename "\"inet.physicallayer.wireless.ieee80211.packetlevel.Ieee80211RadioMedium\""
par networkNED.radioMedium physicalEnvironmentModule "\"physicalEnvironment\""
par networkNED.radioMedium signalAnalogRepresentation "\"scalar\""
attr enum unitDisk,scalar,dimensional
par networkNED.radioMedium rangeFilter "\"\""
par networkNED.radioMedium radioModeFilter false
par networkNED.radioMedium listeningFilter false
par networkNED.radioMedium macAddressFilter false
par networkNED.radioMedium recordTransmissionLog false
par networkNED.radioMedium recordReceptionLog false
scalar networkNED.radioMedium "transmission count" 4
scalar networkNED.radioMedium "signal send count" 40
scalar networkNED.radioMedium "reception computation count" 40
scalar networkNED.radioMedium "interference computation count" 144
scalar networkNED.radioMedium "reception decision computation count" 39
scalar networkNED.radioMedium "listening decision computation count" 65
scalar networkNED.radioMedium "reception cache hit" 85.507246376812
attr unit %
scalar networkNED.radioMedium "interference cache hit" 66.666666666667
attr unit %
scalar networkNED.radioMedium "noise cache hit" 0
attr unit %
scalar networkNED.radioMedium "snir cache hit" 50
attr unit %
scalar networkNED.radioMedium "reception decision cache hit" 50
attr unit %
scalar networkNED.radioMedium "reception result cache hit" 0
attr unit %
par networkNED.accessPoint.radioIn[0].channel typename "\"ned.IdealChannel\""
par networkNED.accessPoint.interfaceTable typename "\"inet.networklayer.common.InterfaceTable\""
par networkNED.accessPoint.interfaceTable displayAddresses false
par networkNED.accessPoint.macTable typename "\"inet.linklayer.ethernet.common.MacForwardingTable\""
par networkNED.accessPoint.macTable agingTime 120s
attr unit s
par networkNED.accessPoint.macTable forwardingTable []
attr mutable ""
par networkNED.accessPoint.macTable forwardingTableFile "\"\""
par networkNED.accessPoint.macTable interfaceTableModule "\"networkNED.accessPoint.interfaceTable\""
par networkNED.accessPoint.macTable displayStringTextFormat "\"addr: %a\\nvlan: %v\""
par networkNED.accessPoint.mobility typename "\"inet.mobility.static.StationaryMobility\""
par networkNED.accessPoint.mobility subjectModule "\"^\""
par networkNED.accessPoint.mobility coordinateSystemModule "\"\""
par networkNED.accessPoint.mobility displayStringTextFormat "\"p: %p\\nv: %v\""
attr mutable ""
par networkNED.accessPoint.mobility updateDisplayString true
par networkNED.accessPoint.mobility constraintAreaMinX "-inf m"
attr unit m
par networkNED.accessPoint.mobility constraintAreaMinY "-inf m"
attr unit m
par networkNED.accessPoint.mobility constraintAreaMinZ "-inf m"
attr unit m
par networkNED.accessPoint.mobility constraintAreaMaxX "inf m"
attr unit m
par networkNED.accessPoint.mobility constraintAreaMaxY "inf m"
attr unit m
par networkNED.accessPoint.mobility constraintAreaMaxZ "inf m"
attr unit m
par networkNED.accessPoint.mobility initialX "nan m"
attr unit m
par networkNED.accessPoint.mobility initialY "nan m"
attr unit m
par networkNED.accessPoint.mobility initialZ 0m
attr unit m
par networkNED.accessPoint.mobility initialLatitude "nan deg"
attr unit deg
par networkNED.accessPoint.mobility initialLongitude "nan deg"
attr unit deg
par networkNED.accessPoint.mobility initialAltitude 0m
attr unit m
par networkNED.accessPoint.mobility initialHeading 0deg
attr unit deg
par networkNED.accessPoint.mobility initialElevation 0deg
attr unit deg
par networkNED.accessPoint.mobility initialBank 0deg
attr unit deg
par networkNED.accessPoint.mobility initFromDisplayString true
par networkNED.accessPoint.mobility updateFromDisplayString true
par networkNED.accessPoint.li typename "\"inet.common.MessageDispatcher\""
par networkNED.accessPoint.li displayStringTextFormat "\"processed %p pk (%l)\""
par networkNED.accessPoint.li forwardServiceRegistration true
par networkNED.accessPoint.li forwardProtocolRegistration true
par networkNED.accessPoint.wlan[0].radioIn.channel typename "\"ned.IdealChannel\""
par networkNED.accessPoint.wlan[0].llc.upperLayerOut.channel typename "\"ned.IdealChannel\""
par networkNED.accessPoint.wlan[0].upperLayerIn.channel typename "\"ned.IdealChannel\""
par networkNED.accessPoint.wlan[0].mib typename "\"inet.linklayer.ieee80211.mib.Ieee80211Mib\""
par networkNED.accessPoint.wlan[0].llc typename "\"inet.linklayer.ieee80211.portal.Ieee80211Portal\""
par networkNED.accessPoint.wlan[0].llc fcsMode "\"declared\""
attr enum declared,computed
par networkNED.accessPoint.wlan[0].mgmt typename "\"inet.linklayer.ieee80211.mgmt.Ieee80211MgmtAp\""
par networkNED.accessPoint.wlan[0].mgmt ssid "\"SSID\""
par networkNED.accessPoint.wlan[0].mgmt beaconInterval 0.1s
attr unit s
par networkNED.accessPoint.wlan[0].mgmt numAuthSteps 4
par networkNED.accessPoint.wlan[0].mgmt interfaceTableModule "\"networkNED.accessPoint.interfaceTable\""
par networkNED.accessPoint.wlan[0].mgmt radioModule "\"^.radio\""
par networkNED.accessPoint.wlan[0].mgmt mibModule "\"networkNED.accessPoint.wlan[0].mib\""
par networkNED.accessPoint.wlan[0].mgmt macModule "\"networkNED.accessPoint.wlan[0].mac\""
par networkNED.accessPoint.wlan[0].mac.dcf.channelAccess.pendingQueue typename "\"inet.linklayer.ieee80211.mac.queue.PendingQueue\""
par networkNED.accessPoint.wlan[0].mac.dcf.channelAccess.pendingQueue displayStringTextFormat "\"contains %p pk (%l) pushed %u\\npulled %o removed %r dropped %d\""
par networkNED.accessPoint.wlan[0].mac.dcf.channelAccess.pendingQueue packetCapacity 100
par networkNED.accessPoint.wlan[0].mac.dcf.channelAccess.pendingQueue dataCapacity -1b
attr unit b
par networkNED.accessPoint.wlan[0].mac.dcf.channelAccess.pendingQueue dropperClass "\"inet::queueing::PacketAtCollectionEndDropper\""
par networkNED.accessPoint.wlan[0].mac.dcf.channelAccess.pendingQueue comparatorClass "\"inet::ieee80211::MgmtOverDataComparator\""
par networkNED.accessPoint.wlan[0].mac.dcf.channelAccess.pendingQueue bufferModule "\"\""
scalar networkNED.accessPoint.wlan[0].mac.dcf.channelAccess.pendingQueue queueLength:last 0
attr autoWarmupFilter false
attr interpolationmode sample-hold
attr recordingmode last
attr source "warmup(atomic(constant0(packetPushEnded) + count(packetPushStarted) - count(packetPulled) - count(packetRemoved) - count(packetDropped)))"
attr title "queue length, last"
attr unit pk
scalar networkNED.accessPoint.wlan[0].mac.dcf.channelAccess.pendingQueue queueLength:max 1
attr autoWarmupFilter false
attr interpolationmode sample-hold
attr recordingmode max
attr source "warmup(atomic(constant0(packetPushEnded) + count(packetPushStarted) - count(packetPulled) - count(packetRemoved) - count(packetDropped)))"
attr title "queue length, max"
attr unit pk
scalar networkNED.accessPoint.wlan[0].mac.dcf.channelAccess.pendingQueue queueLength:timeavg 0.0030140130900595
attr autoWarmupFilter false
attr interpolationmode sample-hold
attr recordingmode timeavg
attr source "warmup(atomic(constant0(packetPushEnded) + count(packetPushStarted) - count(packetPulled) - count(packetRemoved) - count(packetDropped)))"
attr title "queue length, timeavg"
attr unit pk
scalar networkNED.accessPoint.wlan[0].mac.dcf.channelAccess.pendingQueue queueBitLength:last 0
attr autoWarmupFilter false
attr interpolationmode sample-hold
attr recordingmode last
attr source "warmup(atomic(constant0(packetPushEnded) + sum(packetLength(packetPushStarted)) - sum(packetLength(packetPulled)) - sum(packetLength(packetRemoved)) - sum(packetLength(packetDropped))))"
attr title "queue bit length, last"
attr unit b
scalar networkNED.accessPoint.wlan[0].mac.dcf.channelAccess.pendingQueue queueBitLength:max 384
attr autoWarmupFilter false
attr interpolationmode sample-hold
attr recordingmode max
attr source "warmup(atomic(constant0(packetPushEnded) + sum(packetLength(packetPushStarted)) - sum(packetLength(packetPulled)) - sum(packetLength(packetRemoved)) - sum(packetLength(packetDropped))))"
attr title "queue bit length, max"
attr unit b
scalar networkNED.accessPoint.wlan[0].mac.dcf.channelAccess.pendingQueue queueBitLength:timeavg 1.1573810265829
attr autoWarmupFilter false
attr interpolationmode sample-hold
attr recordingmode timeavg
attr source "warmup(atomic(constant0(packetPushEnded) + sum(packetLength(packetPushStarted)) - sum(packetLength(packetPulled)) - sum(packetLength(packetRemoved)) - sum(packetLength(packetDropped))))"
attr title "queue bit length, timeavg"
attr unit b
statistic networkNED.accessPoint.wlan[0].mac.dcf.channelAccess.pendingQueue queueingTime:histogram
field count 2
field mean 0.000215
field stddev 0.00030405591591022
field min 0
field max 0.00043
field sum 0.00043
field sqrsum 1.849e-07
attr interpolationmode none
attr recordingmode histogram
attr source queueingTime(packetPulled)
attr title "queueing times"
attr unit s
bin	-inf	0
bin	0	1
bin	1e-05	0
bin	2e-05	0
bin	3e-05	0
bin	4e-05	0
bin	5e-05	0
bin	6e-05	0
bin	7e-05	0
bin	8e-05	0
bin	9e-05	0
bin	0.0001	0
bin	0.00011	0
bin	0.00012	0
bin	0.00013	0
bin	0.00014	0
bin	0.00015	0
bin	0.00016	0
bin	0.00017	0
bin	0.00018	0
bin	0.00019	0
bin	0.0002	0
bin	0.00021	0
bin	0.00022	0
bin	0.00023	0
bin	0.00024	0
bin	0.00025	0
bin	0.00026	0
bin	0.00027	0
bin	0.00028	0
bin	0.00029	0
bin	0.0003	0
bin	0.00031	0
bin	0.00032	0
bin	0.00033	0
bin	0.00034	0
bin	0.00035	0
bin	0.00036	0
bin	0.00037	0
bin	0.00038	0
bin	0.00039	0
bin	0.0004	0
bin	0.00041	0
bin	0.00042	1
bin	0.00043	0
bin	0.00044	0
bin	0.00045	0
bin	0.00046	0
bin	0.00047	0
bin	0.00048	0
bin	0.00049	0
bin	0.0005	0
bin	0.00051	0
bin	0.00052	0
bin	0.00053	0
bin	0.00054	0
scalar networkNED.accessPoint.wlan[0].mac.dcf.channelAccess.pendingQueue outgoingPackets:count 2
attr recordingmode count
attr source packetPulled
attr title "outgoing packets, count"
attr unit pk
scalar networkNED.accessPoint.wlan[0].mac.dcf.channelAccess.pendingQueue outgoingPacketLengths:sum 768
attr interpolationmode none
attr recordingmode sum
attr source packetLength(packetPulled)
attr title "outgoing packet lengths, sum"
attr unit b
statistic networkNED.accessPoint.wlan[0].mac.dcf.channelAccess.pendingQueue outgoingPacketLengths:histogram
field count 2
field mean 384
field stddev 0
field min 384
field max 384
field sum 768
field sqrsum 294912
attr interpolationmode none
attr recordingmode histogram
attr source packetLength(packetPulled)
attr title "outgoing packet lengths"
attr unit b
bin	-inf	0
bin	383	0
bin	384	2
bin	385	0
statistic networkNED.accessPoint.wlan[0].mac.dcf.channelAccess.pendingQueue flowQueueingTime:histogram
field count 0
field mean nan
field stddev nan
field min nan
field max nan
field sum 0
field sqrsum 0
attr interpolationmode none
attr recordingmode histogram
attr source queueingTime(demuxFlow(packetPulled))
attr title "flow queueing times"
attr unit s
bin	-inf	0
bin	0	0
bin	1	0
scalar networkNED.accessPoint.wlan[0].mac.dcf.channelAccess.pendingQueue incomingPackets:count 2
attr recordingmode count
attr source packetPushStarted
attr title "incoming packets, count"
attr unit pk
scalar networkNED.accessPoint.wlan[0].mac.dcf.channelAccess.pendingQueue incomingPacketLengths:sum 768
attr interpolationmode none
attr recordingmode sum
attr source packetLength(packetPushStarted)
attr title "incoming packet lengths, sum"
attr unit b
statistic networkNED.accessPoint.wlan[0].mac.dcf.channelAccess.pendingQueue incomingPacketLengths:histogram
field count 2
field mean 384
field stddev 0
field min 384
field max 384
field sum 768
field sqrsum 294912
attr interpolationmode none
attr recordingmode histogram
attr source packetLength(packetPushStarted)
attr title "incoming packet lengths"
attr unit b
bin	-inf	0
bin	383	0
bin	384	2
bin	385	0
scalar networkNED.accessPoint.wlan[0].mac.dcf.channelAccess.pendingQueue droppedPacketsQueueOverflow:count 0
attr interpolationmode none
attr recordingmode count
attr source packetDropReasonIsQueueOverflow(packetDropped)
attr title "dropped packets: queue overflow, count"
attr unit pk
scalar networkNED.accessPoint.wlan[0].mac.dcf.channelAccess.pendingQueue droppedPacketLengthsQueueOverflow:sum 0
attr interpolationmode none
attr recordingmode sum
attr source packetLength(packetDropReasonIsQueueOverflow(packetDropped))
attr title "dropped packet lengths: queue overflow, sum"
attr unit b
par networkNED.accessPoint.wlan[0].mac.dcf.channelAccess.inProgressFrames typename "\"inet.linklayer.ieee80211.mac.queue.InProgressFrames\""
par networkNED.accessPoint.wlan[0].mac.dcf.channelAccess.inProgressFrames pendingQueueModule "\"^.pendingQueue\""
par networkNED.accessPoint.wlan[0].mac.dcf.channelAccess.inProgressFrames originatorMacDataServiceModule "\"^.^.originatorMacDataService\""
par networkNED.accessPoint.wlan[0].mac.dcf.channelAccess.inProgressFrames ackHandlerModule "\"^.^.ackHandler\""
statistic networkNED.accessPoint.wlan[0].mac.dcf.channelAccess.inProgressFrames queueingTime:histogram
field count 1
field mean 4.6e-05
field stddev nan
field min 4.6e-05
field max 4.6e-05
field sum 4.6e-05
field sqrsum 2.116e-09
attr interpolationmode none
attr recordingmode histogram
attr source queueingTime(packetDequeued)
attr title "queueing times"
bin	-inf	0
bin	0	1
bin	0.01	0
bin	0.02	0
bin	0.03	0
bin	0.04	0
bin	0.05	0
bin	0.06	0
bin	0.07	0
bin	0.08	0
bin	0.09	0
bin	0.1	0
bin	0.11	0
bin	0.12	0
bin	0.13	0
bin	0.14	0
bin	0.15	0
bin	0.16	0
bin	0.17	0
bin	0.18	0
bin	0.19	0
bin	0.2	0
bin	0.21	0
bin	0.22	0
bin	0.23	0
bin	0.24	0
bin	0.25	0
bin	0.26	0
bin	0.27	0
bin	0.28	0
bin	0.29	0
bin	0.3	0
bin	0.31	0
bin	0.32	0
bin	0.33	0
bin	0.34	0
bin	0.35	0
bin	0.36	0
bin	0.37	0
bin	0.38	0
bin	0.39	0
bin	0.4	0
bin	0.41	0
bin	0.42	0
bin	0.43	0
bin	0.44	0
bin	0.45	0
bin	0.46	0
bin	0.47	0
bin	0.48	0
bin	0.49	0
bin	0.5	0
bin	0.51	0
scalar networkNED.accessPoint.wlan[0].mac.dcf.channelAccess.inProgressFrames queueLength:max 1
attr autoWarmupFilter false
attr interpolationmode sample-hold
attr recordingmode max
attr source "warmup(count(packetEnqueued) - count(packetDequeued))"
attr title "queue length, max"
scalar networkNED.accessPoint.wlan[0].mac.dcf.channelAccess.inProgressFrames queueLength:timeavg 0.00096994669502215
attr autoWarmupFilter false
attr interpolationmode sample-hold
attr recordingmode timeavg
attr source "warmup(count(packetEnqueued) - count(packetDequeued))"
attr title "queue length, timeavg"
par networkNED.accessPoint.wlan[0].mac.dcf.channelAccess.contention typename "\"inet.linklayer.ieee80211.mac.contention.Contention\""
par networkNED.accessPoint.wlan[0].mac.dcf.channelAccess.contention initialChannelBusy true
par networkNED.accessPoint.wlan[0].mac.dcf.channelAccess.contention backoffOptimization true
scalar networkNED.accessPoint.wlan[0].mac.dcf.channelAccess.contention stateChanged:count 20
attr enum IDLE,DEFER,IFS_AND_BACKOFF
attr interpolationmode none
attr recordingmode count
attr title "contention state changed, count"
attr type enum
scalar networkNED.accessPoint.wlan[0].mac.dcf.channelAccess.contention channelAccessGranted:count 2
attr recordingmode count
attr title "channel access granted, count"
par networkNED.accessPoint.wlan[0].mac.dcf.channelAccess typename "\"inet.linklayer.ieee80211.mac.channelaccess.Dcaf\""
par networkNED.accessPoint.wlan[0].mac.dcf.channelAccess difsn -1
par networkNED.accessPoint.wlan[0].mac.dcf.channelAccess cwMin -1
par networkNED.accessPoint.wlan[0].mac.dcf.channelAccess cwMax -1
par networkNED.accessPoint.wlan[0].mac.dcf.channelAccess rxModule "\"^.^.rx\""
scalar networkNED.accessPoint.wlan[0].mac.dcf.channelAccess channelOwnershipChanged:count 3
attr interpolationmode sample-hold
attr recordingmode count
attr title "channel ownership, count"
par networkNED.accessPoint.wlan[0].mac.dcf.originatorMacDataService.fragmentationPolicy typename "\"inet.linklayer.ieee80211.mac.fragmentation.BasicFragmentationPolicy\""
par networkNED.accessPoint.wlan[0].mac.dcf.originatorMacDataService.fragmentationPolicy fragmentationThreshold 1500B
attr unit B
par networkNED.accessPoint.wlan[0].mac.dcf.originatorMacDataService typename "\"inet.linklayer.ieee80211.mac.originator.OriginatorMacDataService\""
scalar networkNED.accessPoint.wlan[0].mac.dcf.originatorMacDataService packetAggregated:count 0
attr recordingmode count
attr title "packets aggregated, count"
scalar networkNED.accessPoint.wlan[0].mac.dcf.originatorMacDataService packetFragmented:count 0
attr recordingmode count
attr title "packets fragmented, count"
par networkNED.accessPoint.wlan[0].mac.dcf.recipientMacDataService typename "\"inet.linklayer.ieee80211.mac.recipient.RecipientMacDataService\""
scalar networkNED.accessPoint.wlan[0].mac.dcf.recipientMacDataService packetDropDuplicateDetected:count 0
attr interpolationmode none
attr recordingmode count
attr source packetDropReasonIsDuplicateDetected(packetDropped)
attr title "packet drops: duplicate detected, count"
scalar networkNED.accessPoint.wlan[0].mac.dcf.recipientMacDataService packetDropDuplicateDetected:sum(packetBytes) 0
attr interpolationmode none
attr recordingmode sum(packetBytes)
attr source packetDropReasonIsDuplicateDetected(packetDropped)
attr title "packet drops: duplicate detected, sum(packetBytes)"
scalar networkNED.accessPoint.wlan[0].mac.dcf.recipientMacDataService packetDeaggregated:count 0
attr recordingmode count
attr title "packets deaggregated, count"
scalar networkNED.accessPoint.wlan[0].mac.dcf.recipientMacDataService packetDefragmented:count 1
attr recordingmode count
attr title "packets defragmented, count"
par networkNED.accessPoint.wlan[0].mac.dcf.rateSelection typename "\"inet.linklayer.ieee80211.mac.rateselection.RateSelection\""
par networkNED.accessPoint.wlan[0].mac.dcf.rateSelection rateControlModule "\"^.rateControl\""
par networkNED.accessPoint.wlan[0].mac.dcf.rateSelection multicastFrameBitrate -1bps
attr unit bps
par networkNED.accessPoint.wlan[0].mac.dcf.rateSelection responseAckFrameBitrate -1bps
attr unit bps
par networkNED.accessPoint.wlan[0].mac.dcf.rateSelection responseCtsFrameBitrate -1bps
attr unit bps
par networkNED.accessPoint.wlan[0].mac.dcf.rateSelection dataFrameBitrate -1bps
attr unit bps
par networkNED.accessPoint.wlan[0].mac.dcf.rateSelection dataFrameBandwidth "nan Hz"
attr unit Hz
par networkNED.accessPoint.wlan[0].mac.dcf.rateSelection dataFrameNumSpatialStreams -1
par networkNED.accessPoint.wlan[0].mac.dcf.rateSelection mgmtFrameBitrate -1bps
attr unit bps
par networkNED.accessPoint.wlan[0].mac.dcf.rateSelection controlFrameBitrate -1bps
attr unit bps
par networkNED.accessPoint.wlan[0].mac.dcf.recoveryProcedure typename "\"inet.linklayer.ieee80211.mac.originator.NonQosRecoveryProcedure\""
par networkNED.accessPoint.wlan[0].mac.dcf.recoveryProcedure cwCalculatorModule "\"^.channelAccess\""
par networkNED.accessPoint.wlan[0].mac.dcf.recoveryProcedure rtsPolicyModule "\"^.rtsPolicy\""
par networkNED.accessPoint.wlan[0].mac.dcf.recoveryProcedure shortRetryLimit 7
par networkNED.accessPoint.wlan[0].mac.dcf.recoveryProcedure longRetryLimit 4
scalar networkNED.accessPoint.wlan[0].mac.dcf.recoveryProcedure retryLimitReached:count 0
attr recordingmode count
attr title "retry limit reached, count"
par networkNED.accessPoint.wlan[0].mac.dcf.originatorProtectionMechanism typename "\"inet.linklayer.ieee80211.mac.protectionmechanism.OriginatorProtectionMechanism\""
par networkNED.accessPoint.wlan[0].mac.dcf.originatorProtectionMechanism rateSelectionModule "\"^.rateSelection\""
par networkNED.accessPoint.wlan[0].mac.dcf.ackHandler typename "\"inet.linklayer.ieee80211.mac.originator.AckHandler\""
par networkNED.accessPoint.wlan[0].mac.dcf.originatorAckPolicy typename "\"inet.linklayer.ieee80211.mac.originator.OriginatorAckPolicy\""
par networkNED.accessPoint.wlan[0].mac.dcf.originatorAckPolicy rateSelectionModule "\"^.rateSelection\""
par networkNED.accessPoint.wlan[0].mac.dcf.originatorAckPolicy ackTimeout -1s
attr unit s
par networkNED.accessPoint.wlan[0].mac.dcf.recipientAckPolicy typename "\"inet.linklayer.ieee80211.mac.recipient.RecipientAckPolicy\""
par networkNED.accessPoint.wlan[0].mac.dcf.recipientAckPolicy rateSelectionModule "\"^.rateSelection\""
par networkNED.accessPoint.wlan[0].mac.dcf.rtsPolicy typename "\"inet.linklayer.ieee80211.mac.originator.RtsPolicy\""
par networkNED.accessPoint.wlan[0].mac.dcf.rtsPolicy rateSelectionModule "\"^.rateSelection\""
par networkNED.accessPoint.wlan[0].mac.dcf.rtsPolicy ctsTimeout -1s
attr unit s
par networkNED.accessPoint.wlan[0].mac.dcf.rtsPolicy rtsThreshold 2346B
attr unit B
par networkNED.accessPoint.wlan[0].mac.dcf.ctsPolicy typename "\"inet.linklayer.ieee80211.mac.recipient.CtsPolicy\""
par networkNED.accessPoint.wlan[0].mac.dcf.ctsPolicy rxModule "\"^.^.rx\""
par networkNED.accessPoint.wlan[0].mac.dcf.ctsPolicy rateSelectionModule "\"^.rateSelection\""
par networkNED.accessPoint.wlan[0].mac.dcf typename "\"inet.linklayer.ieee80211.mac.coordinationfunction.Dcf\""
par networkNED.accessPoint.wlan[0].mac.dcf rxModule "\"^.rx\""
par networkNED.accessPoint.wlan[0].mac.dcf txModule "\"^.tx\""
scalar networkNED.accessPoint.wlan[0].mac.dcf packetReceivedFromPeer:count 1
attr interpolationmode none
attr recordingmode count
attr title "packets received, count"
scalar networkNED.accessPoint.wlan[0].mac.dcf packetReceivedFromPeer:sum(packetBytes) 32
attr interpolationmode none
attr recordingmode sum(packetBytes)
attr title "packets received, sum(packetBytes)"
scalar networkNED.accessPoint.wlan[0].mac.dcf packetReceivedFromPeerUnicast:count 0
attr interpolationmode none
attr recordingmode count
attr source ieee80211Unicast(packetReceivedFromPeer)
attr title "packets received: unicast, count"
scalar networkNED.accessPoint.wlan[0].mac.dcf packetReceivedFromPeerUnicast:sum(packetBytes) 0
attr interpolationmode none
attr recordingmode sum(packetBytes)
attr source ieee80211Unicast(packetReceivedFromPeer)
attr title "packets received: unicast, sum(packetBytes)"
scalar networkNED.accessPoint.wlan[0].mac.dcf packetReceivedFromPeerMulticast:count 1
attr interpolationmode none
attr recordingmode count
attr source ieee80211Multicast(packetReceivedFromPeer)
attr title "packets received: multicast, count"
scalar networkNED.accessPoint.wlan[0].mac.dcf packetReceivedFromPeerMulticast:sum(packetBytes) 32
attr interpolationmode none
attr recordingmode sum(packetBytes)
attr source ieee80211Multicast(packetReceivedFromPeer)
attr title "packets received: multicast, sum(packetBytes)"
scalar networkNED.accessPoint.wlan[0].mac.dcf packetReceivedFromPeerBroadcast:count 1
attr interpolationmode none
attr recordingmode count
attr source ieee80211Broadcast(packetReceivedFromPeer)
attr title "packets received: broadcast, count"
scalar networkNED.accessPoint.wlan[0].mac.dcf packetReceivedFromPeerBroadcast:sum(packetBytes) 32
attr interpolationmode none
attr recordingmode sum(packetBytes)
attr source ieee80211Broadcast(packetReceivedFromPeer)
attr title "packets received: broadcast, sum(packetBytes)"
scalar networkNED.accessPoint.wlan[0].mac.dcf packetReceivedFromPeerWithRetry:count 0
attr interpolationmode none
attr recordingmode count
attr source ieee80211Retry(packetReceivedFromPeer)
attr title "packets received: with retry, count"
scalar networkNED.accessPoint.wlan[0].mac.dcf packetReceivedFromPeerWithRetry:sum(packetBytes) 0
attr interpolationmode none
attr recordingmode sum(packetBytes)
attr source ieee80211Retry(packetReceivedFromPeer)
attr title "packets received: with retry, sum(packetBytes)"
scalar networkNED.accessPoint.wlan[0].mac.dcf packetReceivedFromPeerWithoutRetry:count 1
attr interpolationmode none
attr recordingmode count
attr source ieee80211NotRetry(packetReceivedFromPeer)
attr title "packets received: without retry, count"
scalar networkNED.accessPoint.wlan[0].mac.dcf packetReceivedFromPeerWithoutRetry:sum(packetBytes) 32
attr interpolationmode none
attr recordingmode sum(packetBytes)
attr source ieee80211NotRetry(packetReceivedFromPeer)
attr title "packets received: without retry, sum(packetBytes)"
scalar networkNED.accessPoint.wlan[0].mac.dcf packetSentToPeer:count 2
attr interpolationmode none
attr recordingmode count
attr title "packets sent, count"
scalar networkNED.accessPoint.wlan[0].mac.dcf packetSentToPeer:sum(packetBytes) 96
attr interpolationmode none
attr recordingmode sum(packetBytes)
attr title "packets sent, sum(packetBytes)"
scalar networkNED.accessPoint.wlan[0].mac.dcf packetSentToPeerUnicast:count 1
attr interpolationmode none
attr recordingmode count
attr source ieee80211Unicast(packetSentToPeer)
attr title "packets sent: unicast, count"
scalar networkNED.accessPoint.wlan[0].mac.dcf packetSentToPeerUnicast:sum(packetBytes) 48
attr interpolationmode none
attr recordingmode sum(packetBytes)
attr source ieee80211Unicast(packetSentToPeer)
attr title "packets sent: unicast, sum(packetBytes)"
scalar networkNED.accessPoint.wlan[0].mac.dcf packetSentToPeerMulticast:count 1
attr interpolationmode none
attr recordingmode count
attr source ieee80211Multicast(packetSentToPeer)
attr title "packets sent: multicast, count"
scalar networkNED.accessPoint.wlan[0].mac.dcf packetSentToPeerMulticast:sum(packetBytes) 48
attr interpolationmode none
attr recordingmode sum(packetBytes)
attr source ieee80211Multicast(packetSentToPeer)
attr title "packets sent: multicast, sum(packetBytes)"
scalar networkNED.accessPoint.wlan[0].mac.dcf packetSentToPeerBroadcast:count 1
attr interpolationmode none
attr recordingmode count
attr source ieee80211Broadcast(packetSentToPeer)
attr title "packets sent: broadcast , count"
scalar networkNED.accessPoint.wlan[0].mac.dcf packetSentToPeerBroadcast:sum(packetBytes) 48
attr interpolationmode none
attr recordingmode sum(packetBytes)
attr source ieee80211Broadcast(packetSentToPeer)
attr title "packets sent: broadcast , sum(packetBytes)"
scalar networkNED.accessPoint.wlan[0].mac.dcf packetSentToPeerWithRetry:count 0
attr interpolationmode none
attr recordingmode count
attr source ieee80211Retry(packetSentToPeer)
attr title "packets sent: with retry, count"
scalar networkNED.accessPoint.wlan[0].mac.dcf packetSentToPeerWithRetry:sum(packetBytes) 0
attr interpolationmode none
attr recordingmode sum(packetBytes)
attr source ieee80211Retry(packetSentToPeer)
attr title "packets sent: with retry, sum(packetBytes)"
scalar networkNED.accessPoint.wlan[0].mac.dcf packetSentToPeerWithoutRetry:count 2
attr interpolationmode none
attr recordingmode count
attr source ieee80211NotRetry(packetSentToPeer)
attr title "packets sent: without retry, count"
scalar networkNED.accessPoint.wlan[0].mac.dcf packetSentToPeerWithoutRetry:sum(packetBytes) 96
attr interpolationmode none
attr recordingmode sum(packetBytes)
attr source ieee80211NotRetry(packetSentToPeer)
attr title "packets sent: without retry, sum(packetBytes)"
scalar networkNED.accessPoint.wlan[0].mac.dcf packetDrop:count 0
attr interpolationmode none
attr recordingmode count
attr source packetDropped
attr title "packet drops, count"
scalar networkNED.accessPoint.wlan[0].mac.dcf packetDrop:sum(packetBytes) 0
attr interpolationmode none
attr recordingmode sum(packetBytes)
attr source packetDropped
attr title "packet drops, sum(packetBytes)"
scalar networkNED.accessPoint.wlan[0].mac.dcf packetDropNotAddressedToUs:count 0
attr interpolationmode none
attr recordingmode count
attr source packetDropReasonIsNotAddressedToUs(packetDropped)
attr title "packet drops: not addressed to us, count"
scalar networkNED.accessPoint.wlan[0].mac.dcf packetDropNotAddressedToUs:sum(packetBytes) 0
attr interpolationmode none
attr recordingmode sum(packetBytes)
attr source packetDropReasonIsNotAddressedToUs(packetDropped)
attr title "packet drops: not addressed to us, sum(packetBytes)"
scalar networkNED.accessPoint.wlan[0].mac.dcf packetDropQueueOverflow:count 0
attr interpolationmode none
attr recordingmode count
attr source packetDropReasonIsQueueOverflow(packetDropped)
attr title "packet drops: queue overflow, count"
scalar networkNED.accessPoint.wlan[0].mac.dcf packetDropQueueOverflow:sum(packetBytes) 0
attr interpolationmode none
attr recordingmode sum(packetBytes)
attr source packetDropReasonIsQueueOverflow(packetDropped)
attr title "packet drops: queue overflow, sum(packetBytes)"
scalar networkNED.accessPoint.wlan[0].mac.dcf packetDropRetryLimitReached:count 0
attr interpolationmode none
attr recordingmode count
attr source packetDropReasonIsRetryLimitReached(packetDropped)
attr title "packet drops: retry limit reached, count"
scalar networkNED.accessPoint.wlan[0].mac.dcf packetDropRetryLimitReached:sum(packetBytes) 0
attr interpolationmode none
attr recordingmode sum(packetBytes)
attr source packetDropReasonIsRetryLimitReached(packetDropped)
attr title "packet drops: retry limit reached, sum(packetBytes)"
scalar networkNED.accessPoint.wlan[0].mac.dcf linkBroken:count 0
attr interpolationmode none
attr recordingmode count
attr title "link breaks, count"
scalar networkNED.accessPoint.wlan[0].mac.dcf frameSequenceFinished:count 1
attr recordingmode count
attr title "finished frame sequences, count"
statistic networkNED.accessPoint.wlan[0].mac.dcf frameSequenceDuration:histogram
field count 1
field mean 4.6e-05
field stddev nan
field min 4.6e-05
field max 4.6e-05
field sum 4.6e-05
field sqrsum 2.116e-09
attr recordingmode histogram
attr source frameSequenceDuration(frameSequenceFinished)
attr title "frame sequence durations"
bin	-inf	0
bin	0	1
bin	0.01	0
bin	0.02	0
bin	0.03	0
bin	0.04	0
bin	0.05	0
bin	0.06	0
bin	0.07	0
bin	0.08	0
bin	0.09	0
bin	0.1	0
bin	0.11	0
bin	0.12	0
bin	0.13	0
bin	0.14	0
bin	0.15	0
bin	0.16	0
bin	0.17	0
bin	0.18	0
bin	0.19	0
bin	0.2	0
bin	0.21	0
bin	0.22	0
bin	0.23	0
bin	0.24	0
bin	0.25	0
bin	0.26	0
bin	0.27	0
bin	0.28	0
bin	0.29	0
bin	0.3	0
bin	0.31	0
bin	0.32	0
bin	0.33	0
bin	0.34	0
bin	0.35	0
bin	0.36	0
bin	0.37	0
bin	0.38	0
bin	0.39	0
bin	0.4	0
bin	0.41	0
bin	0.42	0
bin	0.43	0
bin	0.44	0
bin	0.45	0
bin	0.46	0
bin	0.47	0
bin	0.48	0
bin	0.49	0
bin	0.5	0
bin	0.51	0
statistic networkNED.accessPoint.wlan[0].mac.dcf frameSequenceNumPackets:histogram
field count 1
field mean 1
field stddev nan
field min 1
field max 1
field sum 1
field sqrsum 1
attr recordingmode histogram
attr source frameSequenceNumPackets(frameSequenceFinished)
attr title "frame sequences: number of packets"
bin	-inf	0
bin	0	0
bin	1	1
bin	2	0
par networkNED.accessPoint.wlan[0].mac.ds typename "\"inet.linklayer.ieee80211.mac.Ds\""
par networkNED.accessPoint.wlan[0].mac.ds mibModule "\"networkNED.accessPoint.wlan[0].mib\""
par networkNED.accessPoint.wlan[0].mac.rx typename "\"inet.linklayer.ieee80211.mac.Rx\""
par networkNED.accessPoint.wlan[0].mac.tx typename "\"inet.linklayer.ieee80211.mac.Tx\""
par networkNED.accessPoint.wlan[0].mac.tx rxModule "\"^.rx\""
par networkNED.accessPoint.wlan[0].mac typename "\"inet.linklayer.ieee80211.mac.Ieee80211Mac\""
par networkNED.accessPoint.wlan[0].mac interfaceTableModule "\"networkNED.accessPoint.interfaceTable\""
par networkNED.accessPoint.wlan[0].mac mibModule "\"networkNED.accessPoint.wlan[0].mib\""
par networkNED.accessPoint.wlan[0].mac modeSet "\"g(mixed)\""
attr enum a,b,g(erp),g(mixed),n(mixed-2.4Ghz),p,ac
par networkNED.accessPoint.wlan[0].mac fcsMode "\"declared\""
attr enum declared,computed
par networkNED.accessPoint.wlan[0].mac initialRadioMode "\"receiver\""
attr enum off,sleep,receiver,transmitter,transceiver
par networkNED.accessPoint.wlan[0].mac mtu 2304B
attr unit B
par networkNED.accessPoint.wlan[0].mac qosStation false
scalar networkNED.accessPoint.wlan[0].mac packetReceivedFromLower:count 1
attr interpolationmode none
attr recordingmode count
attr title "packets received from lower layer, count"
scalar networkNED.accessPoint.wlan[0].mac packetReceivedFromLower:sum(packetBytes) 32
attr interpolationmode none
attr recordingmode sum(packetBytes)
attr title "packets received from lower layer, sum(packetBytes)"
scalar networkNED.accessPoint.wlan[0].mac packetSentToLower:count 2
attr interpolationmode none
attr recordingmode count
attr title "packets sent to lower layer, count"
scalar networkNED.accessPoint.wlan[0].mac packetSentToLower:sum(packetBytes) 96
attr interpolationmode none
attr recordingmode sum(packetBytes)
attr title "packets sent to lower layer, sum(packetBytes)"
scalar networkNED.accessPoint.wlan[0].mac packetReceivedFromUpper:count 0
attr interpolationmode none
attr recordingmode count
attr title "packets received from upper layer, count"
scalar networkNED.accessPoint.wlan[0].mac packetReceivedFromUpper:sum(packetBytes) 0
attr interpolationmode none
attr recordingmode sum(packetBytes)
attr title "packets received from upper layer, sum(packetBytes)"
scalar networkNED.accessPoint.wlan[0].mac packetSentToUpper:count 0
attr interpolationmode none
attr recordingmode count
attr title "packets sent to upper layer, count"
scalar networkNED.accessPoint.wlan[0].mac packetSentToUpper:sum(packetBytes) 0
attr interpolationmode none
attr recordingmode sum(packetBytes)
attr title "packets sent to upper layer, sum(packetBytes)"
scalar networkNED.accessPoint.wlan[0].mac packetDrop:count 0
attr interpolationmode none
attr recordingmode count
attr source packetDropped
attr title "packet drops, count"
scalar networkNED.accessPoint.wlan[0].mac packetDrop:sum(packetBytes) 0
attr interpolationmode none
attr recordingmode sum(packetBytes)
attr source packetDropped
attr title "packet drops, sum(packetBytes)"
scalar networkNED.accessPoint.wlan[0].mac packetDropIncorrectlyReceived:count 0
attr interpolationmode none
attr recordingmode count
attr source packetDropReasonIsIncorrectlyReceived(packetDropped)
attr title "packet drops: incorrectly received, count"
scalar networkNED.accessPoint.wlan[0].mac packetDropIncorrectlyReceived:sum(packetBytes) 0
attr interpolationmode none
attr recordingmode sum(packetBytes)
attr source packetDropReasonIsIncorrectlyReceived(packetDropped)
attr title "packet drops: incorrectly received, sum(packetBytes)"
scalar networkNED.accessPoint.wlan[0].mac packetDropNotAddressedToUs:count 0
attr interpolationmode none
attr recordingmode count
attr source packetDropReasonIsNotAddressedToUs(packetDropped)
attr title "packet drops: not addressed to us, count"
scalar networkNED.accessPoint.wlan[0].mac packetDropNotAddressedToUs:sum(packetBytes) 0
attr interpolationmode none
attr recordingmode sum(packetBytes)
attr source packetDropReasonIsNotAddressedToUs(packetDropped)
attr title "packet drops: not addressed to us, sum(packetBytes)"
scalar networkNED.accessPoint.wlan[0].mac packetDropQueueOverflow:count 0
attr interpolationmode none
attr recordingmode count
attr source packetDropReasonIsQueueOverflow(packetDropped)
attr title "packet drops: queue overflow, count"
scalar networkNED.accessPoint.wlan[0].mac packetDropQueueOverflow:sum(packetBytes) 0
attr interpolationmode none
attr recordingmode sum(packetBytes)
attr source packetDropReasonIsQueueOverflow(packetDropped)
attr title "packet drops: queue overflow, sum(packetBytes)"
scalar networkNED.accessPoint.wlan[0].mac packetDropRetryLimitReached:count 0
attr interpolationmode none
attr recordingmode count
attr source packetDropReasonIsRetryLimitReached(packetDropped)
attr title "packet drops: retry limit reached, count"
scalar networkNED.accessPoint.wlan[0].mac packetDropRetryLimitReached:sum(packetBytes) 0
attr interpolationmode none
attr recordingmode sum(packetBytes)
attr source packetDropReasonIsRetryLimitReached(packetDropped)
attr title "packet drops: retry limit reached, sum(packetBytes)"
scalar networkNED.accessPoint.wlan[0].mac packetDropDuplicateDetected:count 0
attr interpolationmode none
attr recordingmode count
attr source packetDropReasonIsDuplicateDetected(packetDropped)
attr title "packet drops: duplicate detected, count"
scalar networkNED.accessPoint.wlan[0].mac packetDropDuplicateDetected:sum(packetBytes) 0
attr interpolationmode none
attr recordingmode sum(packetBytes)
attr source packetDropReasonIsDuplicateDetected(packetDropped)
attr title "packet drops: duplicate detected, sum(packetBytes)"
scalar networkNED.accessPoint.wlan[0].mac packetDropOther:count 0
attr interpolationmode none
attr recordingmode count
attr source packetDropReasonIsOther(packetDropped)
attr title "packet drops: other, count"
scalar networkNED.accessPoint.wlan[0].mac packetDropOther:sum(packetBytes) 0
attr interpolationmode none
attr recordingmode sum(packetBytes)
attr source packetDropReasonIsOther(packetDropped)
attr title "packet drops: other, sum(packetBytes)"
scalar networkNED.accessPoint.wlan[0].mac linkBroken:count 0
attr interpolationmode none
attr recordingmode count
attr title "link breaks, count"
par networkNED.accessPoint.wlan[0].radio.antenna typename "\"inet.physicallayer.wireless.common.antenna.IsotropicAntenna\""
par networkNED.accessPoint.wlan[0].radio.antenna mobilityModule "\"^.^.^.mobility\""
par networkNED.accessPoint.wlan[0].radio.antenna numAntennas 1
par networkNED.accessPoint.wlan[0].radio.transmitter typename "\"inet.physicallayer.wireless.ieee80211.packetlevel.Ieee80211ScalarTransmitter\""
par networkNED.accessPoint.wlan[0].radio.transmitter preambleDuration -1s
attr unit s
par networkNED.accessPoint.wlan[0].radio.transmitter headerLength 192b
attr unit b
par networkNED.accessPoint.wlan[0].radio.transmitter bitrate -1bps
attr unit bps
par networkNED.accessPoint.wlan[0].radio.transmitter power 0.02W
attr unit W
par networkNED.accessPoint.wlan[0].radio.transmitter centerFrequency 2.412e+09Hz
attr unit Hz
par networkNED.accessPoint.wlan[0].radio.transmitter bandwidth "nan Hz"
attr unit Hz
par networkNED.accessPoint.wlan[0].radio.transmitter codeRate 1
par networkNED.accessPoint.wlan[0].radio.transmitter modulation "\"BPSK\""
par networkNED.accessPoint.wlan[0].radio.transmitter opMode "\"g(mixed)\""
attr enum a,b,g(erp),g(mixed),n(mixed-2.4Ghz),p,ac
par networkNED.accessPoint.wlan[0].radio.transmitter bandName "\"2.4 GHz\""
attr enum "2.4 GHz,5 GHz,5 GHz (20 MHz),5 GHz (40 MHz),5 GHz (80 MHz),5 GHz (160 MHz),5.9 GHz"
par networkNED.accessPoint.wlan[0].radio.transmitter channelNumber 0
par networkNED.accessPoint.wlan[0].radio.receiver.errorModel typename "\"inet.physicallayer.wireless.ieee80211.packetlevel.errormodel.Ieee80211NistErrorModel\""
par networkNED.accessPoint.wlan[0].radio.receiver.errorModel corruptionMode "\"packet\""
attr enum packet,chunk,byte,bit
par networkNED.accessPoint.wlan[0].radio.receiver.errorModel snirMode "\"min\""
attr enum min,mean
par networkNED.accessPoint.wlan[0].radio.receiver.errorModel snirOffset 0dB
attr unit dB
par networkNED.accessPoint.wlan[0].radio.receiver typename "\"inet.physicallayer.wireless.ieee80211.packetlevel.Ieee80211ScalarReceiver\""
par networkNED.accessPoint.wlan[0].radio.receiver snirThreshold 4dB
attr unit dB
par networkNED.accessPoint.wlan[0].radio.receiver snirThresholdMode "\"min\""
attr enum min,mean
par networkNED.accessPoint.wlan[0].radio.receiver energyDetection -85dBm
attr unit dBm
par networkNED.accessPoint.wlan[0].radio.receiver sensitivity -85dBm
attr unit dBm
par networkNED.accessPoint.wlan[0].radio.receiver centerFrequency 2.412e+09Hz
attr unit Hz
par networkNED.accessPoint.wlan[0].radio.receiver bandwidth 2.2e+07Hz
attr unit Hz
par networkNED.accessPoint.wlan[0].radio.receiver modulation "\"BPSK\""
par networkNED.accessPoint.wlan[0].radio.receiver opMode "\"g(mixed)\""
attr enum a,b,g(erp),g(mixed),n(mixed-2.4Ghz),p,ac
par networkNED.accessPoint.wlan[0].radio.receiver bandName "\"2.4 GHz\""
attr enum "2.4 GHz,5 GHz,5 GHz (20 MHz),5 GHz (40 MHz),5 GHz (80 MHz),5 GHz (160 MHz),5.9 GHz"
par networkNED.accessPoint.wlan[0].radio.receiver channelNumber 0
par networkNED.accessPoint.wlan[0].radio typename "\"inet.physicallayer.wireless.ieee80211.packetlevel.Ieee80211ScalarRadio\""
par networkNED.accessPoint.wlan[0].radio radioMediumModule "\"radioMedium\""
par networkNED.accessPoint.wlan[0].radio energySourceModule "\"\""
par networkNED.accessPoint.wlan[0].radio initialRadioMode "\"off\""
attr enum off,sleep,receiver,transmitter,transceiver
par networkNED.accessPoint.wlan[0].radio switchingTimes "\"ms 0 0 0 0 0 0 0 0 0 0 0 0 0 0 0 0 0 0 0 0 0 0 0 0 0\""
par networkNED.accessPoint.wlan[0].radio sendRawBytes false
par networkNED.accessPoint.wlan[0].radio separateTransmissionParts false
par networkNED.accessPoint.wlan[0].radio separateReceptionParts false
par networkNED.accessPoint.wlan[0].radio displayCommunicationRange false
par networkNED.accessPoint.wlan[0].radio displayInterferenceRange false
par networkNED.accessPoint.wlan[0].radio centerFrequency 2.412e+09Hz
attr unit Hz
par networkNED.accessPoint.wlan[0].radio bandwidth "nan Hz"
attr unit Hz
par networkNED.accessPoint.wlan[0].radio signalAnalogRepresentation "\"scalar\""
attr enum scalar,dimensional
par networkNED.accessPoint.wlan[0].radio opMode "\"g(mixed)\""
attr enum a,b,g(erp),g(mixed),n(mixed-2.4Ghz),p,ac
par networkNED.accessPoint.wlan[0].radio bandName "\"2.4 GHz\""
attr enum "2.4 GHz,5 GHz,5 GHz (20 MHz),5 GHz (40 MHz),5 GHz (80 MHz),5 GHz (160 MHz),5.9 GHz"
par networkNED.accessPoint.wlan[0].radio channelNumber 0
par networkNED.accessPoint.wlan[0].radio crcMode "\"declared\""
attr enum declared,computed
statistic networkNED.accessPoint.wlan[0].radio minSnir:histogram
field count 1
field mean 1250.8087275716
field stddev nan
field min 1250.8087275716
field max 1250.8087275716
field sum 1250.8087275716
field sqrsum 1564522.4729693
attr recordingmode histogram
attr source minimumSnir(packetSentToUpper)
attr title "Min SNIR"
bin	-inf	0
bin	1250.3	0
bin	1250.32	0
bin	1250.34	0
bin	1250.36	0
bin	1250.38	0
bin	1250.4	0
bin	1250.42	0
bin	1250.44	0
bin	1250.46	0
bin	1250.48	0
bin	1250.5	0
bin	1250.52	0
bin	1250.54	0
bin	1250.56	0
bin	1250.58	0
bin	1250.6	0
bin	1250.62	0
bin	1250.64	0
bin	1250.66	0
bin	1250.68	0
bin	1250.7	0
bin	1250.72	0
bin	1250.74	0
bin	1250.76	0
bin	1250.78	0
bin	1250.8	1
bin	1250.82	0
bin	1250.84	0
bin	1250.86	0
bin	1250.88	0
bin	1250.9	0
bin	1250.92	0
bin	1250.94	0
bin	1250.96	0
bin	1250.98	0
bin	1251	0
bin	1251.02	0
bin	1251.04	0
bin	1251.06	0
bin	1251.08	0
bin	1251.1	0
bin	1251.12	0
bin	1251.14	0
bin	1251.16	0
bin	1251.18	0
bin	1251.2	0
bin	1251.22	0
bin	1251.24	0
bin	1251.26	0
bin	1251.28	0
bin	1251.3	0
bin	1251.32	0
statistic networkNED.accessPoint.wlan[0].radio packetErrorRate:histogram
field count 1
field mean 0
field stddev nan
field min 0
field max 0
field sum 0
field sqrsum 0
attr recordingmode histogram
attr source packetErrorRate(packetSentToUpper)
attr title "Packet error rate"
bin	-inf	0
bin	-0.5	0
bin	-0.48	0
bin	-0.46	0
bin	-0.44	0
bin	-0.42	0
bin	-0.4	0
bin	-0.38	0
bin	-0.36	0
bin	-0.34	0
bin	-0.32	0
bin	-0.3	0
bin	-0.28	0
bin	-0.26	0
bin	-0.24	0
bin	-0.22	0
bin	-0.2	0
bin	-0.18	0
bin	-0.16	0
bin	-0.14	0
bin	-0.12	0
bin	-0.1	0
bin	-0.08	0
bin	-0.06	0
bin	-0.04	0
bin	-0.02	0
bin	0	1
bin	0.02	0
bin	0.04	0
bin	0.06	0
bin	0.08	0
bin	0.1	0
bin	0.12	0
bin	0.14	0
bin	0.16	0
bin	0.18	0
bin	0.2	0
bin	0.22	0
bin	0.24	0
bin	0.26	0
bin	0.28	0
bin	0.3	0
bin	0.32	0
bin	0.34	0
bin	0.36	0
bin	0.38	0
bin	0.4	0
bin	0.42	0
bin	0.44	0
bin	0.46	0
bin	0.48	0
bin	0.5	0
statistic networkNED.accessPoint.wlan[0].radio bitErrorRate:histogram
field count 0
field mean nan
field stddev nan
field min nan
field max nan
field sum 0
field sqrsum 0
attr recordingmode histogram
attr source bitErrorRate(packetSentToUpper)
attr title "Bit error rate"
bin	-inf	0
bin	0	0
bin	1	0
statistic networkNED.accessPoint.wlan[0].radio symbolErrorRate:histogram
field count 0
field mean nan
field stddev nan
field min nan
field max nan
field sum 0
field sqrsum 0
attr recordingmode histogram
attr source symbolErrorRate(packetSentToUpper)
attr title "Symbol error rate"
bin	-inf	0
bin	0	0
bin	1	0
scalar networkNED.accessPoint.wlan[0].radio transmissionState:count 8
attr interpolationmode sample-hold
attr recordingmode count
attr source transmissionStateChanged
attr title "Radio transmission state, count"
scalar networkNED.accessPoint.wlan[0].radio receptionState:count 8
attr interpolationmode sample-hold
attr recordingmode count
attr source receptionStateChanged
attr title "Radio reception state, count"
scalar networkNED.accessPoint.wlan[0].radio radioMode:count 7
attr interpolationmode sample-hold
attr recordingmode count
attr source radioModeChanged
attr title "Radio mode, count"
statistic networkNED.accessPoint.wlan[0].radio radioChannel:histogram
field count 1
field mean 0
field stddev nan
field min 0
field max 0
field sum 0
field sqrsum 0
attr interpolationmode sample-hold
attr recordingmode histogram
attr source radioChannelChanged
attr title "Radio channel"
bin	-inf	0
bin	-0.5	0
bin	-0.48	0
bin	-0.46	0
bin	-0.44	0
bin	-0.42	0
bin	-0.4	0
bin	-0.38	0
bin	-0.36	0
bin	-0.34	0
bin	-0.32	0
bin	-0.3	0
bin	-0.28	0
bin	-0.26	0
bin	-0.24	0
bin	-0.22	0
bin	-0.2	0
bin	-0.18	0
bin	-0.16	0
bin	-0.14	0
bin	-0.12	0
bin	-0.1	0
bin	-0.08	0
bin	-0.06	0
bin	-0.04	0
bin	-0.02	0
bin	0	1
bin	0.02	0
bin	0.04	0
bin	0.06	0
bin	0.08	0
bin	0.1	0
bin	0.12	0
bin	0.14	0
bin	0.16	0
bin	0.18	0
bin	0.2	0
bin	0.22	0
bin	0.24	0
bin	0.26	0
bin	0.28	0
bin	0.3	0
bin	0.32	0
bin	0.34	0
bin	0.36	0
bin	0.38	0
bin	0.4	0
bin	0.42	0
bin	0.44	0
bin	0.46	0
bin	0.48	0
bin	0.5	0
par networkNED.accessPoint.wlan[0] typename "\"inet.linklayer.ieee80211.Ieee80211Interface\""
par networkNED.accessPoint.wlan[0] displayStringTextFormat "\"%a (%i)\\n%m\""
par networkNED.accessPoint.wlan[0] recordPcap false
par networkNED.accessPoint.wlan[0] numPcapRecorders 0
par networkNED.accessPoint.wlan[0] interfaceTableModule "\"networkNED.accessPoint.interfaceTable\""
par networkNED.accessPoint.wlan[0] energySourceModule "\"\""
par networkNED.accessPoint.wlan[0] opMode "\"g(mixed)\""
attr enum a,b,g(erp),g(mixed),n(mixed-2.4Ghz),p,ac
par networkNED.accessPoint.wlan[0] address "\"0A-AA-00-00-00-01\""
attr mutable ""
par networkNED.accessPoint.wlan[0] protocol "\"ethernetmac\""
par networkNED.accessPoint.wlan[0] bitrate -1bps
attr unit bps
scalar networkNED.accessPoint.wlan[0] packetDropInterfaceDown:count 0
attr interpolationmode none
attr recordingmode count
attr source packetDropReasonIsInterfaceDown(packetDropped)
attr title "packet drops: interface down, count"
scalar networkNED.accessPoint.wlan[0] packetDropInterfaceDown:sum(packetBytes) 0
attr interpolationmode none
attr recordingmode sum(packetBytes)
attr source packetDropReasonIsInterfaceDown(packetDropped)
attr title "packet drops: interface down, sum(packetBytes)"
scalar networkNED.accessPoint.wlan[0] packetDropNoCarrier:count 0
attr interpolationmode none
attr recordingmode count
attr source packetDropReasonIsNoCarrier(packetDropped)
attr title "packet drops: no carrier, count"
scalar networkNED.accessPoint.wlan[0] packetDropNoCarrier:sum(packetBytes) 0
attr interpolationmode none
attr recordingmode sum(packetBytes)
attr source packetDropReasonIsNoCarrier(packetDropped)
attr title "packet drops: no carrier, sum(packetBytes)"
par networkNED.accessPoint typename "\"inet.node.wireless.AccessPoint\""
par networkNED.accessPoint numWlanInterfaces 1
par networkNED.accessPoint hasStatus false
par networkNED.accessPoint fcsMode "\"declared\""
attr enum declared,computed
par networkNED.wirelessHost[0].radioIn[0].channel typename "\"ned.IdealChannel\""
par networkNED.wirelessHost[0].mobility typename "\"inet.mobility.static.StationaryMobility\""
par networkNED.wirelessHost[0].mobility subjectModule "\"^\""
par networkNED.wirelessHost[0].mobility coordinateSystemModule "\"\""
par networkNED.wirelessHost[0].mobility displayStringTextFormat "\"p: %p\\nv: %v\""
attr mutable ""
par networkNED.wirelessHost[0].mobility updateDisplayString true
par networkNED.wirelessHost[0].mobility constraintAreaMinX "-inf m"
attr unit m
par networkNED.wirelessHost[0].mobility constraintAreaMinY "-inf m"
attr unit m
par networkNED.wirelessHost[0].mobility constraintAreaMinZ "-inf m"
attr unit m
par networkNED.wirelessHost[0].mobility constraintAreaMaxX "inf m"
attr unit m
par networkNED.wirelessHost[0].mobility constraintAreaMaxY "inf m"
attr unit m
par networkNED.wirelessHost[0].mobility constraintAreaMaxZ "inf m"
attr unit m
par networkNED.wirelessHost[0].mobility initialX "nan m"
attr unit m
par networkNED.wirelessHost[0].mobility initialY "nan m"
attr unit m
par networkNED.wirelessHost[0].mobility initialZ 0m
attr unit m
par networkNED.wirelessHost[0].mobility initialLatitude "nan deg"
attr unit deg
par networkNED.wirelessHost[0].mobility initialLongitude "nan deg"
attr unit deg
par networkNED.wirelessHost[0].mobility initialAltitude 0m
attr unit m
par networkNED.wirelessHost[0].mobility initialHeading 0deg
attr unit deg
par networkNED.wirelessHost[0].mobility initialElevation 0deg
attr unit deg
par networkNED.wirelessHost[0].mobility initialBank 0deg
attr unit deg
par networkNED.wirelessHost[0].mobility initFromDisplayString true
par networkNED.wirelessHost[0].mobility updateFromDisplayString true
par networkNED.wirelessHost[0].interfaceTable typename "\"inet.networklayer.common.InterfaceTable\""
par networkNED.wirelessHost[0].interfaceTable displayAddresses false
par networkNED.wirelessHost[0].cb typename "\"inet.common.MessageDispatcher\""
par networkNED.wirelessHost[0].cb displayStringTextFormat "\"processed %p pk (%l)\""
par networkNED.wirelessHost[0].cb forwardServiceRegistration true
par networkNED.wirelessHost[0].cb forwardProtocolRegistration true
par networkNED.wirelessHost[0].bl typename "\"inet.common.MessageDispatcher\""
par networkNED.wirelessHost[0].bl displayStringTextFormat "\"processed %p pk (%l)\""
par networkNED.wirelessHost[0].bl forwardServiceRegistration true
par networkNED.wirelessHost[0].bl forwardProtocolRegistration true
par networkNED.wirelessHost[0].li typename "\"inet.common.MessageDispatcher\""
par networkNED.wirelessHost[0].li displayStringTextFormat "\"processed %p pk (%l)\""
par networkNED.wirelessHost[0].li forwardServiceRegistration true
par networkNED.wirelessHost[0].li forwardProtocolRegistration true
par networkNED.wirelessHost[0].lo[0].upperLayerIn.channel typename "\"ned.IdealChannel\""
par networkNED.wirelessHost[0].lo[0].lo.upperLayerOut.channel typename "\"ned.IdealChannel\""
par networkNED.wirelessHost[0].lo[0].lo typename "\"inet.linklayer.loopback.Loopback\""
par networkNED.wirelessHost[0].lo[0].lo interfaceTableModule "\"networkNED.wirelessHost[0].interfaceTable\""
par networkNED.wirelessHost[0].lo[0].lo mtu 4470B
attr unit B
scalar networkNED.wirelessHost[0].lo[0].lo rcvdPkFromHl:count 0
attr interpolationmode none
attr recordingmode count
attr source packetReceivedFromUpper
attr title "packets received from higher layer, count"
scalar networkNED.wirelessHost[0].lo[0].lo rcvdPkFromHl:sum(packetBytes) 0
attr interpolationmode none
attr recordingmode sum(packetBytes)
attr source packetReceivedFromUpper
attr title "packets received from higher layer, sum(packetBytes)"
scalar networkNED.wirelessHost[0].lo[0].lo passedUpPk:count 0
attr interpolationmode none
attr recordingmode count
attr source packetSentToUpper
attr title "packets passed to higher layer, count"
scalar networkNED.wirelessHost[0].lo[0].lo passedUpPk:sum(packetBytes) 0
attr interpolationmode none
attr recordingmode sum(packetBytes)
attr source packetSentToUpper
attr title "packets passed to higher layer, sum(packetBytes)"
par networkNED.wirelessHost[0].lo[0] typename "\"inet.linklayer.loopback.LoopbackInterface\""
par networkNED.wirelessHost[0].lo[0] displayStringTextFormat "\"%a (%i)\\n%m\""
par networkNED.wirelessHost[0].lo[0] recordPcap false
par networkNED.wirelessHost[0].lo[0] numPcapRecorders 0
par networkNED.wirelessHost[0].lo[0] interfaceTableModule "\"networkNED.wirelessHost[0].interfaceTable\""
scalar networkNED.wirelessHost[0].lo[0] packetDropInterfaceDown:count 0
attr interpolationmode none
attr recordingmode count
attr source packetDropReasonIsInterfaceDown(packetDropped)
attr title "packet drops: interface down, count"
scalar networkNED.wirelessHost[0].lo[0] packetDropInterfaceDown:sum(packetBytes) 0
attr interpolationmode none
attr recordingmode sum(packetBytes)
attr source packetDropReasonIsInterfaceDown(packetDropped)
attr title "packet drops: interface down, sum(packetBytes)"
scalar networkNED.wirelessHost[0].lo[0] packetDropNoCarrier:count 0
attr interpolationmode none
attr recordingmode count
attr source packetDropReasonIsNoCarrier(packetDropped)
attr title "packet drops: no carrier, count"
scalar networkNED.wirelessHost[0].lo[0] packetDropNoCarrier:sum(packetBytes) 0
attr interpolationmode none
attr recordingmode sum(packetBytes)
attr source packetDropReasonIsNoCarrier(packetDropped)
attr title "packet drops: no carrier, sum(packetBytes)"
par networkNED.wirelessHost[0].wlan[0].radioIn.channel typename "\"ned.IdealChannel\""
par networkNED.wirelessHost[0].wlan[0].llc.upperLayerOut.channel typename "\"ned.IdealChannel\""
par networkNED.wirelessHost[0].wlan[0].upperLayerIn.channel typename "\"ned.IdealChannel\""
par networkNED.wirelessHost[0].wlan[0].mib typename "\"inet.linklayer.ieee80211.mib.Ieee80211Mib\""
par networkNED.wirelessHost[0].wlan[0].llc typename "\"inet.linklayer.ieee80211.llc.Ieee80211LlcLpd\""
par networkNED.wirelessHost[0].wlan[0].llc registerProtocol false
par networkNED.wirelessHost[0].wlan[0].agent typename "\"inet.linklayer.ieee80211.mgmt.Ieee80211AgentSta\""
par networkNED.wirelessHost[0].wlan[0].agent interfaceTableModule "\"networkNED.wirelessHost[0].interfaceTable\""
par networkNED.wirelessHost[0].wlan[0].agent mibModule "\"networkNED.wirelessHost[0].wlan[0].mib\""
par networkNED.wirelessHost[0].wlan[0].agent activeScan true
par networkNED.wirelessHost[0].wlan[0].agent channelsToScan "\"\""
par networkNED.wirelessHost[0].wlan[0].agent probeDelay 0.1s
attr unit s
par networkNED.wirelessHost[0].wlan[0].agent minChannelTime 0.15s
attr unit s
par networkNED.wirelessHost[0].wlan[0].agent maxChannelTime 0.3s
attr unit s
par networkNED.wirelessHost[0].wlan[0].agent authenticationTimeout 5s
attr unit s
par networkNED.wirelessHost[0].wlan[0].agent associationTimeout 5s
attr unit s
par networkNED.wirelessHost[0].wlan[0].agent startingTime -1s
attr unit s
par networkNED.wirelessHost[0].wlan[0].agent defaultSsid "\"SSID\""
scalar networkNED.wirelessHost[0].wlan[0].agent dropConfirm:count 0
attr recordingmode count
attr title "dropped confirms, count"
scalar networkNED.wirelessHost[0].wlan[0].agent acceptConfirm:count 0
attr recordingmode count
attr title "accepted confirms, count"
scalar networkNED.wirelessHost[0].wlan[0].agent sentRequest:count 1
attr recordingmode count
attr title "sent requests, count"
par networkNED.wirelessHost[0].wlan[0].mgmt typename "\"inet.linklayer.ieee80211.mgmt.Ieee80211MgmtSta\""
par networkNED.wirelessHost[0].wlan[0].mgmt interfaceTableModule "\"networkNED.wirelessHost[0].interfaceTable\""
par networkNED.wirelessHost[0].wlan[0].mgmt numChannels 1
par networkNED.wirelessHost[0].wlan[0].mgmt mibModule "\"networkNED.wirelessHost[0].wlan[0].mib\""
par networkNED.wirelessHost[0].wlan[0].mgmt macModule "\"networkNED.wirelessHost[0].wlan[0].mac\""
par networkNED.wirelessHost[0].wlan[0].mac.dcf.channelAccess.pendingQueue typename "\"inet.linklayer.ieee80211.mac.queue.PendingQueue\""
par networkNED.wirelessHost[0].wlan[0].mac.dcf.channelAccess.pendingQueue displayStringTextFormat "\"contains %p pk (%l) pushed %u\\npulled %o removed %r dropped %d\""
par networkNED.wirelessHost[0].wlan[0].mac.dcf.channelAccess.pendingQueue packetCapacity 100
par networkNED.wirelessHost[0].wlan[0].mac.dcf.channelAccess.pendingQueue dataCapacity -1b
attr unit b
par networkNED.wirelessHost[0].wlan[0].mac.dcf.channelAccess.pendingQueue dropperClass "\"inet::queueing::PacketAtCollectionEndDropper\""
par networkNED.wirelessHost[0].wlan[0].mac.dcf.channelAccess.pendingQueue comparatorClass "\"inet::ieee80211::MgmtOverDataComparator\""
par networkNED.wirelessHost[0].wlan[0].mac.dcf.channelAccess.pendingQueue bufferModule "\"\""
scalar networkNED.wirelessHost[0].wlan[0].mac.dcf.channelAccess.pendingQueue queueLength:last 0
attr autoWarmupFilter false
attr interpolationmode sample-hold
attr recordingmode last
attr source "warmup(atomic(constant0(packetPushEnded) + count(packetPushStarted) - count(packetPulled) - count(packetRemoved) - count(packetDropped)))"
attr title "queue length, last"
attr unit pk
scalar networkNED.wirelessHost[0].wlan[0].mac.dcf.channelAccess.pendingQueue queueLength:max 0
attr autoWarmupFilter false
attr interpolationmode sample-hold
attr recordingmode max
attr source "warmup(atomic(constant0(packetPushEnded) + count(packetPushStarted) - count(packetPulled) - count(packetRemoved) - count(packetDropped)))"
attr title "queue length, max"
attr unit pk
scalar networkNED.wirelessHost[0].wlan[0].mac.dcf.channelAccess.pendingQueue queueLength:timeavg 0
attr autoWarmupFilter false
attr interpolationmode sample-hold
attr recordingmode timeavg
attr source "warmup(atomic(constant0(packetPushEnded) + count(packetPushStarted) - count(packetPulled) - count(packetRemoved) - count(packetDropped)))"
attr title "queue length, timeavg"
attr unit pk
scalar networkNED.wirelessHost[0].wlan[0].mac.dcf.channelAccess.pendingQueue queueBitLength:last 0
attr autoWarmupFilter false
attr interpolationmode sample-hold
attr recordingmode last
attr source "warmup(atomic(constant0(packetPushEnded) + sum(packetLength(packetPushStarted)) - sum(packetLength(packetPulled)) - sum(packetLength(packetRemoved)) - sum(packetLength(packetDropped))))"
attr title "queue bit length, last"
attr unit b
scalar networkNED.wirelessHost[0].wlan[0].mac.dcf.channelAccess.pendingQueue queueBitLength:max 0
attr autoWarmupFilter false
attr interpolationmode sample-hold
attr recordingmode max
attr source "warmup(atomic(constant0(packetPushEnded) + sum(packetLength(packetPushStarted)) - sum(packetLength(packetPulled)) - sum(packetLength(packetRemoved)) - sum(packetLength(packetDropped))))"
attr title "queue bit length, max"
attr unit b
scalar networkNED.wirelessHost[0].wlan[0].mac.dcf.channelAccess.pendingQueue queueBitLength:timeavg 0
attr autoWarmupFilter false
attr interpolationmode sample-hold
attr recordingmode timeavg
attr source "warmup(atomic(constant0(packetPushEnded) + sum(packetLength(packetPushStarted)) - sum(packetLength(packetPulled)) - sum(packetLength(packetRemoved)) - sum(packetLength(packetDropped))))"
attr title "queue bit length, timeavg"
attr unit b
statistic networkNED.wirelessHost[0].wlan[0].mac.dcf.channelAccess.pendingQueue queueingTime:histogram
field count 0
field mean nan
field stddev nan
field min nan
field max nan
field sum 0
field sqrsum 0
attr interpolationmode none
attr recordingmode histogram
attr source queueingTime(packetPulled)
attr title "queueing times"
attr unit s
bin	-inf	0
bin	0	0
bin	1	0
scalar networkNED.wirelessHost[0].wlan[0].mac.dcf.channelAccess.pendingQueue outgoingPackets:count 0
attr recordingmode count
attr source packetPulled
attr title "outgoing packets, count"
attr unit pk
scalar networkNED.wirelessHost[0].wlan[0].mac.dcf.channelAccess.pendingQueue outgoingPacketLengths:sum 0
attr interpolationmode none
attr recordingmode sum
attr source packetLength(packetPulled)
attr title "outgoing packet lengths, sum"
attr unit b
statistic networkNED.wirelessHost[0].wlan[0].mac.dcf.channelAccess.pendingQueue outgoingPacketLengths:histogram
field count 0
field mean nan
field stddev nan
field min nan
field max nan
field sum 0
field sqrsum 0
attr interpolationmode none
attr recordingmode histogram
attr source packetLength(packetPulled)
attr title "outgoing packet lengths"
attr unit b
bin	-inf	0
bin	0	0
bin	1	0
statistic networkNED.wirelessHost[0].wlan[0].mac.dcf.channelAccess.pendingQueue flowQueueingTime:histogram
field count 0
field mean nan
field stddev nan
field min nan
field max nan
field sum 0
field sqrsum 0
attr interpolationmode none
attr recordingmode histogram
attr source queueingTime(demuxFlow(packetPulled))
attr title "flow queueing times"
attr unit s
bin	-inf	0
bin	0	0
bin	1	0
scalar networkNED.wirelessHost[0].wlan[0].mac.dcf.channelAccess.pendingQueue incomingPackets:count 0
attr recordingmode count
attr source packetPushStarted
attr title "incoming packets, count"
attr unit pk
scalar networkNED.wirelessHost[0].wlan[0].mac.dcf.channelAccess.pendingQueue incomingPacketLengths:sum 0
attr interpolationmode none
attr recordingmode sum
attr source packetLength(packetPushStarted)
attr title "incoming packet lengths, sum"
attr unit b
statistic networkNED.wirelessHost[0].wlan[0].mac.dcf.channelAccess.pendingQueue incomingPacketLengths:histogram
field count 0
field mean nan
field stddev nan
field min nan
field max nan
field sum 0
field sqrsum 0
attr interpolationmode none
attr recordingmode histogram
attr source packetLength(packetPushStarted)
attr title "incoming packet lengths"
attr unit b
bin	-inf	0
bin	0	0
bin	1	0
scalar networkNED.wirelessHost[0].wlan[0].mac.dcf.channelAccess.pendingQueue droppedPacketsQueueOverflow:count 0
attr interpolationmode none
attr recordingmode count
attr source packetDropReasonIsQueueOverflow(packetDropped)
attr title "dropped packets: queue overflow, count"
attr unit pk
scalar networkNED.wirelessHost[0].wlan[0].mac.dcf.channelAccess.pendingQueue droppedPacketLengthsQueueOverflow:sum 0
attr interpolationmode none
attr recordingmode sum
attr source packetLength(packetDropReasonIsQueueOverflow(packetDropped))
attr title "dropped packet lengths: queue overflow, sum"
attr unit b
par networkNED.wirelessHost[0].wlan[0].mac.dcf.channelAccess.inProgressFrames typename "\"inet.linklayer.ieee80211.mac.queue.InProgressFrames\""
par networkNED.wirelessHost[0].wlan[0].mac.dcf.channelAccess.inProgressFrames pendingQueueModule "\"^.pendingQueue\""
par networkNED.wirelessHost[0].wlan[0].mac.dcf.channelAccess.inProgressFrames originatorMacDataServiceModule "\"^.^.originatorMacDataService\""
par networkNED.wirelessHost[0].wlan[0].mac.dcf.channelAccess.inProgressFrames ackHandlerModule "\"^.^.ackHandler\""
statistic networkNED.wirelessHost[0].wlan[0].mac.dcf.channelAccess.inProgressFrames queueingTime:histogram
field count 0
field mean nan
field stddev nan
field min nan
field max nan
field sum 0
field sqrsum 0
attr interpolationmode none
attr recordingmode histogram
attr source queueingTime(packetDequeued)
attr title "queueing times"
bin	-inf	0
bin	0	0
bin	1	0
scalar networkNED.wirelessHost[0].wlan[0].mac.dcf.channelAccess.inProgressFrames queueLength:max 0
attr autoWarmupFilter false
attr interpolationmode sample-hold
attr recordingmode max
attr source "warmup(count(packetEnqueued) - count(packetDequeued))"
attr title "queue length, max"
scalar networkNED.wirelessHost[0].wlan[0].mac.dcf.channelAccess.inProgressFrames queueLength:timeavg 0
attr autoWarmupFilter false
attr interpolationmode sample-hold
attr recordingmode timeavg
attr source "warmup(count(packetEnqueued) - count(packetDequeued))"
attr title "queue length, timeavg"
par networkNED.wirelessHost[0].wlan[0].mac.dcf.channelAccess.contention typename "\"inet.linklayer.ieee80211.mac.contention.Contention\""
par networkNED.wirelessHost[0].wlan[0].mac.dcf.channelAccess.contention initialChannelBusy true
par networkNED.wirelessHost[0].wlan[0].mac.dcf.channelAccess.contention backoffOptimization true
scalar networkNED.wirelessHost[0].wlan[0].mac.dcf.channelAccess.contention stateChanged:count 18
attr enum IDLE,DEFER,IFS_AND_BACKOFF
attr interpolationmode none
attr recordingmode count
attr title "contention state changed, count"
attr type enum
scalar networkNED.wirelessHost[0].wlan[0].mac.dcf.channelAccess.contention channelAccessGranted:count 0
attr recordingmode count
attr title "channel access granted, count"
par networkNED.wirelessHost[0].wlan[0].mac.dcf.channelAccess typename "\"inet.linklayer.ieee80211.mac.channelaccess.Dcaf\""
par networkNED.wirelessHost[0].wlan[0].mac.dcf.channelAccess difsn -1
par networkNED.wirelessHost[0].wlan[0].mac.dcf.channelAccess cwMin -1
par networkNED.wirelessHost[0].wlan[0].mac.dcf.channelAccess cwMax -1
par networkNED.wirelessHost[0].wlan[0].mac.dcf.channelAccess rxModule "\"^.^.rx\""
scalar networkNED.wirelessHost[0].wlan[0].mac.dcf.channelAccess channelOwnershipChanged:count 0
attr interpolationmode sample-hold
attr recordingmode count
attr title "channel ownership, count"
par networkNED.wirelessHost[0].wlan[0].mac.dcf.originatorMacDataService.fragmentationPolicy typename "\"inet.linklayer.ieee80211.mac.fragmentation.BasicFragmentationPolicy\""
par networkNED.wirelessHost[0].wlan[0].mac.dcf.originatorMacDataService.fragmentationPolicy fragmentationThreshold 1500B
attr unit B
par networkNED.wirelessHost[0].wlan[0].mac.dcf.originatorMacDataService typename "\"inet.linklayer.ieee80211.mac.originator.OriginatorMacDataService\""
scalar networkNED.wirelessHost[0].wlan[0].mac.dcf.originatorMacDataService packetAggregated:count 0
attr recordingmode count
attr title "packets aggregated, count"
scalar networkNED.wirelessHost[0].wlan[0].mac.dcf.originatorMacDataService packetFragmented:count 0
attr recordingmode count
attr title "packets fragmented, count"
par networkNED.wirelessHost[0].wlan[0].mac.dcf.recipientMacDataService typename "\"inet.linklayer.ieee80211.mac.recipient.RecipientMacDataService\""
scalar networkNED.wirelessHost[0].wlan[0].mac.dcf.recipientMacDataService packetDropDuplicateDetected:count 0
attr interpolationmode none
attr recordingmode count
attr source packetDropReasonIsDuplicateDetected(packetDropped)
attr title "packet drops: duplicate detected, count"
scalar networkNED.wirelessHost[0].wlan[0].mac.dcf.recipientMacDataService packetDropDuplicateDetected:sum(packetBytes) 0
attr interpolationmode none
attr recordingmode sum(packetBytes)
attr source packetDropReasonIsDuplicateDetected(packetDropped)
attr title "packet drops: duplicate detected, sum(packetBytes)"
scalar networkNED.wirelessHost[0].wlan[0].mac.dcf.recipientMacDataService packetDeaggregated:count 0
attr recordingmode count
attr title "packets deaggregated, count"
scalar networkNED.wirelessHost[0].wlan[0].mac.dcf.recipientMacDataService packetDefragmented:count 2
attr recordingmode count
attr title "packets defragmented, count"
par networkNED.wirelessHost[0].wlan[0].mac.dcf.rateSelection typename "\"inet.linklayer.ieee80211.mac.rateselection.RateSelection\""
par networkNED.wirelessHost[0].wlan[0].mac.dcf.rateSelection rateControlModule "\"^.rateControl\""
par networkNED.wirelessHost[0].wlan[0].mac.dcf.rateSelection multicastFrameBitrate -1bps
attr unit bps
par networkNED.wirelessHost[0].wlan[0].mac.dcf.rateSelection responseAckFrameBitrate -1bps
attr unit bps
par networkNED.wirelessHost[0].wlan[0].mac.dcf.rateSelection responseCtsFrameBitrate -1bps
attr unit bps
par networkNED.wirelessHost[0].wlan[0].mac.dcf.rateSelection dataFrameBitrate -1bps
attr unit bps
par networkNED.wirelessHost[0].wlan[0].mac.dcf.rateSelection dataFrameBandwidth "nan Hz"
attr unit Hz
par networkNED.wirelessHost[0].wlan[0].mac.dcf.rateSelection dataFrameNumSpatialStreams -1
par networkNED.wirelessHost[0].wlan[0].mac.dcf.rateSelection mgmtFrameBitrate -1bps
attr unit bps
par networkNED.wirelessHost[0].wlan[0].mac.dcf.rateSelection controlFrameBitrate -1bps
attr unit bps
par networkNED.wirelessHost[0].wlan[0].mac.dcf.recoveryProcedure typename "\"inet.linklayer.ieee80211.mac.originator.NonQosRecoveryProcedure\""
par networkNED.wirelessHost[0].wlan[0].mac.dcf.recoveryProcedure cwCalculatorModule "\"^.channelAccess\""
par networkNED.wirelessHost[0].wlan[0].mac.dcf.recoveryProcedure rtsPolicyModule "\"^.rtsPolicy\""
par networkNED.wirelessHost[0].wlan[0].mac.dcf.recoveryProcedure shortRetryLimit 7
par networkNED.wirelessHost[0].wlan[0].mac.dcf.recoveryProcedure longRetryLimit 4
scalar networkNED.wirelessHost[0].wlan[0].mac.dcf.recoveryProcedure retryLimitReached:count 0
attr recordingmode count
attr title "retry limit reached, count"
par networkNED.wirelessHost[0].wlan[0].mac.dcf.originatorProtectionMechanism typename "\"inet.linklayer.ieee80211.mac.protectionmechanism.OriginatorProtectionMechanism\""
par networkNED.wirelessHost[0].wlan[0].mac.dcf.originatorProtectionMechanism rateSelectionModule "\"^.rateSelection\""
par networkNED.wirelessHost[0].wlan[0].mac.dcf.ackHandler typename "\"inet.linklayer.ieee80211.mac.originator.AckHandler\""
par networkNED.wirelessHost[0].wlan[0].mac.dcf.originatorAckPolicy typename "\"inet.linklayer.ieee80211.mac.originator.OriginatorAckPolicy\""
par networkNED.wirelessHost[0].wlan[0].mac.dcf.originatorAckPolicy rateSelectionModule "\"^.rateSelection\""
par networkNED.wirelessHost[0].wlan[0].mac.dcf.originatorAckPolicy ackTimeout -1s
attr unit s
par networkNED.wirelessHost[0].wlan[0].mac.dcf.recipientAckPolicy typename "\"inet.linklayer.ieee80211.mac.recipient.RecipientAckPolicy\""
par networkNED.wirelessHost[0].wlan[0].mac.dcf.recipientAckPolicy rateSelectionModule "\"^.rateSelection\""
par networkNED.wirelessHost[0].wlan[0].mac.dcf.rtsPolicy typename "\"inet.linklayer.ieee80211.mac.originator.RtsPolicy\""
par networkNED.wirelessHost[0].wlan[0].mac.dcf.rtsPolicy rateSelectionModule "\"^.rateSelection\""
par networkNED.wirelessHost[0].wlan[0].mac.dcf.rtsPolicy ctsTimeout -1s
attr unit s
par networkNED.wirelessHost[0].wlan[0].mac.dcf.rtsPolicy rtsThreshold 2346B
attr unit B
par networkNED.wirelessHost[0].wlan[0].mac.dcf.ctsPolicy typename "\"inet.linklayer.ieee80211.mac.recipient.CtsPolicy\""
par networkNED.wirelessHost[0].wlan[0].mac.dcf.ctsPolicy rxModule "\"^.^.rx\""
par networkNED.wirelessHost[0].wlan[0].mac.dcf.ctsPolicy rateSelectionModule "\"^.rateSelection\""
par networkNED.wirelessHost[0].wlan[0].mac.dcf typename "\"inet.linklayer.ieee80211.mac.coordinationfunction.Dcf\""
par networkNED.wirelessHost[0].wlan[0].mac.dcf rxModule "\"^.rx\""
par networkNED.wirelessHost[0].wlan[0].mac.dcf txModule "\"^.tx\""
scalar networkNED.wirelessHost[0].wlan[0].mac.dcf packetReceivedFromPeer:count 2
attr interpolationmode none
attr recordingmode count
attr title "packets received, count"
scalar networkNED.wirelessHost[0].wlan[0].mac.dcf packetReceivedFromPeer:sum(packetBytes) 80
attr interpolationmode none
attr recordingmode sum(packetBytes)
attr title "packets received, sum(packetBytes)"
scalar networkNED.wirelessHost[0].wlan[0].mac.dcf packetReceivedFromPeerUnicast:count 0
attr interpolationmode none
attr recordingmode count
attr source ieee80211Unicast(packetReceivedFromPeer)
attr title "packets received: unicast, count"
scalar networkNED.wirelessHost[0].wlan[0].mac.dcf packetReceivedFromPeerUnicast:sum(packetBytes) 0
attr interpolationmode none
attr recordingmode sum(packetBytes)
attr source ieee80211Unicast(packetReceivedFromPeer)
attr title "packets received: unicast, sum(packetBytes)"
scalar networkNED.wirelessHost[0].wlan[0].mac.dcf packetReceivedFromPeerMulticast:count 2
attr interpolationmode none
attr recordingmode count
attr source ieee80211Multicast(packetReceivedFromPeer)
attr title "packets received: multicast, count"
scalar networkNED.wirelessHost[0].wlan[0].mac.dcf packetReceivedFromPeerMulticast:sum(packetBytes) 80
attr interpolationmode none
attr recordingmode sum(packetBytes)
attr source ieee80211Multicast(packetReceivedFromPeer)
attr title "packets received: multicast, sum(packetBytes)"
scalar networkNED.wirelessHost[0].wlan[0].mac.dcf packetReceivedFromPeerBroadcast:count 2
attr interpolationmode none
attr recordingmode count
attr source ieee80211Broadcast(packetReceivedFromPeer)
attr title "packets received: broadcast, count"
scalar networkNED.wirelessHost[0].wlan[0].mac.dcf packetReceivedFromPeerBroadcast:sum(packetBytes) 80
attr interpolationmode none
attr recordingmode sum(packetBytes)
attr source ieee80211Broadcast(packetReceivedFromPeer)
attr title "packets received: broadcast, sum(packetBytes)"
scalar networkNED.wirelessHost[0].wlan[0].mac.dcf packetReceivedFromPeerWithRetry:count 0
attr interpolationmode none
attr recordingmode count
attr source ieee80211Retry(packetReceivedFromPeer)
attr title "packets received: with retry, count"
scalar networkNED.wirelessHost[0].wlan[0].mac.dcf packetReceivedFromPeerWithRetry:sum(packetBytes) 0
attr interpolationmode none
attr recordingmode sum(packetBytes)
attr source ieee80211Retry(packetReceivedFromPeer)
attr title "packets received: with retry, sum(packetBytes)"
scalar networkNED.wirelessHost[0].wlan[0].mac.dcf packetReceivedFromPeerWithoutRetry:count 2
attr interpolationmode none
attr recordingmode count
attr source ieee80211NotRetry(packetReceivedFromPeer)
attr title "packets received: without retry, count"
scalar networkNED.wirelessHost[0].wlan[0].mac.dcf packetReceivedFromPeerWithoutRetry:sum(packetBytes) 80
attr interpolationmode none
attr recordingmode sum(packetBytes)
attr source ieee80211NotRetry(packetReceivedFromPeer)
attr title "packets received: without retry, sum(packetBytes)"
scalar networkNED.wirelessHost[0].wlan[0].mac.dcf packetSentToPeer:count 0
attr interpolationmode none
attr recordingmode count
attr title "packets sent, count"
scalar networkNED.wirelessHost[0].wlan[0].mac.dcf packetSentToPeer:sum(packetBytes) 0
attr interpolationmode none
attr recordingmode sum(packetBytes)
attr title "packets sent, sum(packetBytes)"
scalar networkNED.wirelessHost[0].wlan[0].mac.dcf packetSentToPeerUnicast:count 0
attr interpolationmode none
attr recordingmode count
attr source ieee80211Unicast(packetSentToPeer)
attr title "packets sent: unicast, count"
scalar networkNED.wirelessHost[0].wlan[0].mac.dcf packetSentToPeerUnicast:sum(packetBytes) 0
attr interpolationmode none
attr recordingmode sum(packetBytes)
attr source ieee80211Unicast(packetSentToPeer)
attr title "packets sent: unicast, sum(packetBytes)"
scalar networkNED.wirelessHost[0].wlan[0].mac.dcf packetSentToPeerMulticast:count 0
attr interpolationmode none
attr recordingmode count
attr source ieee80211Multicast(packetSentToPeer)
attr title "packets sent: multicast, count"
scalar networkNED.wirelessHost[0].wlan[0].mac.dcf packetSentToPeerMulticast:sum(packetBytes) 0
attr interpolationmode none
attr recordingmode sum(packetBytes)
attr source ieee80211Multicast(packetSentToPeer)
attr title "packets sent: multicast, sum(packetBytes)"
scalar networkNED.wirelessHost[0].wlan[0].mac.dcf packetSentToPeerBroadcast:count 0
attr interpolationmode none
attr recordingmode count
attr source ieee80211Broadcast(packetSentToPeer)
attr title "packets sent: broadcast , count"
scalar networkNED.wirelessHost[0].wlan[0].mac.dcf packetSentToPeerBroadcast:sum(packetBytes) 0
attr interpolationmode none
attr recordingmode sum(packetBytes)
attr source ieee80211Broadcast(packetSentToPeer)
attr title "packets sent: broadcast , sum(packetBytes)"
scalar networkNED.wirelessHost[0].wlan[0].mac.dcf packetSentToPeerWithRetry:count 0
attr interpolationmode none
attr recordingmode count
attr source ieee80211Retry(packetSentToPeer)
attr title "packets sent: with retry, count"
scalar networkNED.wirelessHost[0].wlan[0].mac.dcf packetSentToPeerWithRetry:sum(packetBytes) 0
attr interpolationmode none
attr recordingmode sum(packetBytes)
attr source ieee80211Retry(packetSentToPeer)
attr title "packets sent: with retry, sum(packetBytes)"
scalar networkNED.wirelessHost[0].wlan[0].mac.dcf packetSentToPeerWithoutRetry:count 0
attr interpolationmode none
attr recordingmode count
attr source ieee80211NotRetry(packetSentToPeer)
attr title "packets sent: without retry, count"
scalar networkNED.wirelessHost[0].wlan[0].mac.dcf packetSentToPeerWithoutRetry:sum(packetBytes) 0
[...]
field count 0
field mean nan
field stddev nan
field min nan
field max nan
field sum 0
field sqrsum 0
attr recordingmode histogram
attr source bitErrorRate(packetSentToUpper)
attr title "Bit error rate"
bin	-inf	0
bin	0	0
bin	1	0
statistic networkNED.wirelessHost[9].wlan[0].radio symbolErrorRate:histogram
field count 0
field mean nan
field stddev nan
field min nan
field max nan
field sum 0
field sqrsum 0
attr recordingmode histogram
attr source symbolErrorRate(packetSentToUpper)
attr title "Symbol error rate"
bin	-inf	0
bin	0	0
bin	1	0
scalar networkNED.wirelessHost[9].wlan[0].radio transmissionState:count 0
attr interpolationmode sample-hold
attr recordingmode count
attr source transmissionStateChanged
attr title "Radio transmission state, count"
scalar networkNED.wirelessHost[9].wlan[0].radio receptionState:count 9
attr interpolationmode sample-hold
attr recordingmode count
attr source receptionStateChanged
attr title "Radio reception state, count"
scalar networkNED.wirelessHost[9].wlan[0].radio radioMode:count 3
attr interpolationmode sample-hold
attr recordingmode count
attr source radioModeChanged
attr title "Radio mode, count"
statistic networkNED.wirelessHost[9].wlan[0].radio radioChannel:histogram
field count 1
field mean 0
field stddev nan
field min 0
field max 0
field sum 0
field sqrsum 0
attr interpolationmode sample-hold
attr recordingmode histogram
attr source radioChannelChanged
attr title "Radio channel"
bin	-inf	0
bin	-0.5	0
bin	-0.48	0
bin	-0.46	0
bin	-0.44	0
bin	-0.42	0
bin	-0.4	0
bin	-0.38	0
bin	-0.36	0
bin	-0.34	0
bin	-0.32	0
bin	-0.3	0
bin	-0.28	0
bin	-0.26	0
bin	-0.24	0
bin	-0.22	0
bin	-0.2	0
bin	-0.18	0
bin	-0.16	0
bin	-0.14	0
bin	-0.12	0
bin	-0.1	0
bin	-0.08	0
bin	-0.06	0
bin	-0.04	0
bin	-0.02	0
bin	0	1
bin	0.02	0
bin	0.04	0
bin	0.06	0
bin	0.08	0
bin	0.1	0
bin	0.12	0
bin	0.14	0
bin	0.16	0
bin	0.18	0
bin	0.2	0
bin	0.22	0
bin	0.24	0
bin	0.26	0
bin	0.28	0
bin	0.3	0
bin	0.32	0
bin	0.34	0
bin	0.36	0
bin	0.38	0
bin	0.4	0
bin	0.42	0
bin	0.44	0
bin	0.46	0
bin	0.48	0
bin	0.5	0
par networkNED.wirelessHost[9].wlan[0] typename "\"inet.linklayer.ieee80211.Ieee80211Interface\""
par networkNED.wirelessHost[9].wlan[0] displayStringTextFormat "\"%a (%i)\\n%m\""
par networkNED.wirelessHost[9].wlan[0] recordPcap false
par networkNED.wirelessHost[9].wlan[0] numPcapRecorders 0
par networkNED.wirelessHost[9].wlan[0] interfaceTableModule "\"networkNED.wirelessHost[9].interfaceTable\""
par networkNED.wirelessHost[9].wlan[0] energySourceModule "\"\""
par networkNED.wirelessHost[9].wlan[0] opMode "\"g(mixed)\""
attr enum a,b,g(erp),g(mixed),n(mixed-2.4Ghz),p,ac
par networkNED.wirelessHost[9].wlan[0] address "\"0A-AA-00-00-00-0B\""
attr mutable ""
par networkNED.wirelessHost[9].wlan[0] protocol "\"\""
par networkNED.wirelessHost[9].wlan[0] bitrate -1bps
attr unit bps
scalar networkNED.wirelessHost[9].wlan[0] packetDropInterfaceDown:count 0
attr interpolationmode none
attr recordingmode count
attr source packetDropReasonIsInterfaceDown(packetDropped)
attr title "packet drops: interface down, count"
scalar networkNED.wirelessHost[9].wlan[0] packetDropInterfaceDown:sum(packetBytes) 0
attr interpolationmode none
attr recordingmode sum(packetBytes)
attr source packetDropReasonIsInterfaceDown(packetDropped)
attr title "packet drops: interface down, sum(packetBytes)"
scalar networkNED.wirelessHost[9].wlan[0] packetDropNoCarrier:count 0
attr interpolationmode none
attr recordingmode count
attr source packetDropReasonIsNoCarrier(packetDropped)
attr title "packet drops: no carrier, count"
scalar networkNED.wirelessHost[9].wlan[0] packetDropNoCarrier:sum(packetBytes) 0
attr interpolationmode none
attr recordingmode sum(packetBytes)
attr source packetDropReasonIsNoCarrier(packetDropped)
attr title "packet drops: no carrier, sum(packetBytes)"
par networkNED.wirelessHost[9].ipv4.transportIn.channel typename "\"ned.IdealChannel\""
par networkNED.wirelessHost[9].ipv4.up.out[0].channel typename "\"ned.IdealChannel\""
par networkNED.wirelessHost[9].ipv4.lp.out[2].channel typename "\"ned.IdealChannel\""
par networkNED.wirelessHost[9].ipv4.ifIn.channel typename "\"ned.IdealChannel\""
par networkNED.wirelessHost[9].ipv4.configurator typename "\"inet.networklayer.configurator.ipv4.Ipv4NodeConfigurator\""
par networkNED.wirelessHost[9].ipv4.configurator interfaceTableModule "\"networkNED.wirelessHost[9].interfaceTable\""
par networkNED.wirelessHost[9].ipv4.configurator routingTableModule "\"networkNED.wirelessHost[9].ipv4.routingTable\""
par networkNED.wirelessHost[9].ipv4.configurator networkConfiguratorModule "\"configurator\""
par networkNED.wirelessHost[9].ipv4.configurator configureRoutingTable true
par networkNED.wirelessHost[9].ipv4.routingTable typename "\"inet.networklayer.ipv4.Ipv4RoutingTable\""
par networkNED.wirelessHost[9].ipv4.routingTable interfaceTableModule "\"networkNED.wirelessHost[9].interfaceTable\""
par networkNED.wirelessHost[9].ipv4.routingTable routerId "\"auto\""
par networkNED.wirelessHost[9].ipv4.routingTable netmaskRoutes "\"*\""
par networkNED.wirelessHost[9].ipv4.routingTable forwarding false
par networkNED.wirelessHost[9].ipv4.routingTable multicastForwarding false
par networkNED.wirelessHost[9].ipv4.routingTable useAdminDist false
par networkNED.wirelessHost[9].ipv4.routingTable routingFile "\"\""
par networkNED.wirelessHost[9].ipv4.natTable typename "\"inet.networklayer.ipv4.Ipv4NatTable\""
par networkNED.wirelessHost[9].ipv4.natTable networkProtocolModule "\"^.ip\""
par networkNED.wirelessHost[9].ipv4.natTable config "<config/> at content:1"
par networkNED.wirelessHost[9].ipv4.up typename "\"inet.common.MessageDispatcher\""
par networkNED.wirelessHost[9].ipv4.up displayStringTextFormat "\"processed %p pk (%l)\""
par networkNED.wirelessHost[9].ipv4.up forwardServiceRegistration true
par networkNED.wirelessHost[9].ipv4.up forwardProtocolRegistration true
par networkNED.wirelessHost[9].ipv4.igmp typename "\"inet.networklayer.ipv4.Igmpv2\""
par networkNED.wirelessHost[9].ipv4.igmp interfaceTableModule "\"networkNED.wirelessHost[9].interfaceTable\""
par networkNED.wirelessHost[9].ipv4.igmp routingTableModule "\"networkNED.wirelessHost[9].ipv4.routingTable\""
par networkNED.wirelessHost[9].ipv4.igmp crcMode "\"declared\""
attr enum declared,computed
par networkNED.wirelessHost[9].ipv4.igmp enabled true
par networkNED.wirelessHost[9].ipv4.igmp robustnessVariable 2
par networkNED.wirelessHost[9].ipv4.igmp queryInterval 125s
attr unit s
par networkNED.wirelessHost[9].ipv4.igmp queryResponseInterval 10s
attr unit s
par networkNED.wirelessHost[9].ipv4.igmp groupMembershipInterval 260s
attr unit s
par networkNED.wirelessHost[9].ipv4.igmp otherQuerierPresentInterval 255s
attr unit s
par networkNED.wirelessHost[9].ipv4.igmp startupQueryInterval 31.25s
attr unit s
par networkNED.wirelessHost[9].ipv4.igmp startupQueryCount 2
par networkNED.wirelessHost[9].ipv4.igmp lastMemberQueryInterval 1s
attr unit s
par networkNED.wirelessHost[9].ipv4.igmp lastMemberQueryCount 2
par networkNED.wirelessHost[9].ipv4.igmp unsolicitedReportInterval 10s
attr unit s
par networkNED.wirelessHost[9].ipv4.icmp typename "\"inet.networklayer.ipv4.Icmp\""
par networkNED.wirelessHost[9].ipv4.icmp interfaceTableModule "\"networkNED.wirelessHost[9].interfaceTable\""
par networkNED.wirelessHost[9].ipv4.icmp routingTableModule "\"networkNED.wirelessHost[9].ipv4.routingTable\""
par networkNED.wirelessHost[9].ipv4.icmp crcMode "\"declared\""
attr enum declared,computed
attr mutable ""
par networkNED.wirelessHost[9].ipv4.icmp quoteLength 8B
attr mutable ""
attr unit B
par networkNED.wirelessHost[9].ipv4.mp typename "\"inet.common.MessageDispatcher\""
par networkNED.wirelessHost[9].ipv4.mp displayStringTextFormat "\"processed %p pk (%l)\""
par networkNED.wirelessHost[9].ipv4.mp forwardServiceRegistration true
par networkNED.wirelessHost[9].ipv4.mp forwardProtocolRegistration true
par networkNED.wirelessHost[9].ipv4.ip typename "\"inet.networklayer.ipv4.Ipv4\""
par networkNED.wirelessHost[9].ipv4.ip interfaceTableModule "\"networkNED.wirelessHost[9].interfaceTable\""
par networkNED.wirelessHost[9].ipv4.ip routingTableModule "\"networkNED.wirelessHost[9].ipv4.routingTable\""
par networkNED.wirelessHost[9].ipv4.ip arpModule "\"networkNED.wirelessHost[9].ipv4.arp\""
par networkNED.wirelessHost[9].ipv4.ip icmpModule "\"networkNED.wirelessHost[9].ipv4.icmp\""
par networkNED.wirelessHost[9].ipv4.ip crcMode "\"declared\""
attr enum declared,computed
par networkNED.wirelessHost[9].ipv4.ip timeToLive 32
par networkNED.wirelessHost[9].ipv4.ip multicastTimeToLive 32
par networkNED.wirelessHost[9].ipv4.ip fragmentTimeout 60s
attr unit s
par networkNED.wirelessHost[9].ipv4.ip limitedBroadcast false
par networkNED.wirelessHost[9].ipv4.ip directBroadcastInterfaces "\"\""
scalar networkNED.wirelessHost[9].ipv4.ip packetDropAddressResolutionFailed:count 0
attr interpolationmode none
attr recordingmode count
attr source packetDropReasonIsAddressResolutionFailed(packetDropped)
attr title "packet drop: address resolution failed, count"
scalar networkNED.wirelessHost[9].ipv4.ip packetDropAddressResolutionFailed:sum(packetBytes) 0
attr interpolationmode none
attr recordingmode sum(packetBytes)
attr source packetDropReasonIsAddressResolutionFailed(packetDropped)
attr title "packet drop: address resolution failed, sum(packetBytes)"
scalar networkNED.wirelessHost[9].ipv4.ip packetDropHopLimitReached:count 0
attr interpolationmode none
attr recordingmode count
attr source packetDropReasonIsHopLimitReached(packetDropped)
attr title "packet drop: hop limit reached, count"
scalar networkNED.wirelessHost[9].ipv4.ip packetDropHopLimitReached:sum(packetBytes) 0
attr interpolationmode none
attr recordingmode sum(packetBytes)
attr source packetDropReasonIsHopLimitReached(packetDropped)
attr title "packet drop: hop limit reached, sum(packetBytes)"
scalar networkNED.wirelessHost[9].ipv4.ip packetDropForwardingDisabled:count 0
attr interpolationmode none
attr recordingmode count
attr source packetDropReasonIsForwardingDisabled(packetDropped)
attr title "packet drop: forwarding disabled, count"
scalar networkNED.wirelessHost[9].ipv4.ip packetDropForwardingDisabled:sum(packetBytes) 0
attr interpolationmode none
attr recordingmode sum(packetBytes)
attr source packetDropReasonIsForwardingDisabled(packetDropped)
attr title "packet drop: forwarding disabled, sum(packetBytes)"
scalar networkNED.wirelessHost[9].ipv4.ip packetDropNoInterfaceFound:count 0
attr interpolationmode none
attr recordingmode count
attr source packetDropReasonIsNoInterfaceFound(packetDropped)
attr title "packet drop: no interface found, count"
scalar networkNED.wirelessHost[9].ipv4.ip packetDropNoInterfaceFound:sum(packetBytes) 0
attr interpolationmode none
attr recordingmode sum(packetBytes)
attr source packetDropReasonIsNoInterfaceFound(packetDropped)
attr title "packet drop: no interface found, sum(packetBytes)"
scalar networkNED.wirelessHost[9].ipv4.ip packetDropNoRouteFound:count 0
attr interpolationmode none
attr recordingmode count
attr source packetDropReasonIsNoRouteFound(packetDropped)
attr title "packet drop: no route found, count"
scalar networkNED.wirelessHost[9].ipv4.ip packetDropNoRouteFound:sum(packetBytes) 0
attr interpolationmode none
attr recordingmode sum(packetBytes)
attr source packetDropReasonIsNoRouteFound(packetDropped)
attr title "packet drop: no route found, sum(packetBytes)"
scalar networkNED.wirelessHost[9].ipv4.ip packetDropUndefined:count 0
attr interpolationmode none
attr recordingmode count
attr source packetDropReasonIsUndefined(packetDropped)
attr title "packet drop: undefined, count"
scalar networkNED.wirelessHost[9].ipv4.ip packetDropUndefined:sum(packetBytes) 0
attr interpolationmode none
attr recordingmode sum(packetBytes)
attr source packetDropReasonIsUndefined(packetDropped)
attr title "packet drop: undefined, sum(packetBytes)"
par networkNED.wirelessHost[9].ipv4.arp typename "\"inet.networklayer.arp.ipv4.Arp\""
par networkNED.wirelessHost[9].ipv4.arp interfaceTableModule "\"networkNED.wirelessHost[9].interfaceTable\""
par networkNED.wirelessHost[9].ipv4.arp routingTableModule "\"networkNED.wirelessHost[9].ipv4.routingTable\""
par networkNED.wirelessHost[9].ipv4.arp retryTimeout 1s
attr unit s
par networkNED.wirelessHost[9].ipv4.arp retryCount 3
par networkNED.wirelessHost[9].ipv4.arp cacheTimeout 120s
attr unit s
par networkNED.wirelessHost[9].ipv4.arp proxyArpInterfaces "\"\""
scalar networkNED.wirelessHost[9].ipv4.arp arpReplySent:count 0
attr recordingmode count
attr source arpReplySent
attr title "ARP replies sent, count"
scalar networkNED.wirelessHost[9].ipv4.arp arpReplySent:sum(packetBytes) 0
attr recordingmode sum(packetBytes)
attr source arpReplySent
attr title "ARP replies sent, sum(packetBytes)"
scalar networkNED.wirelessHost[9].ipv4.arp arpRequestSent:count 0
attr recordingmode count
attr source arpRequestSent
attr title "ARP request sent, count"
scalar networkNED.wirelessHost[9].ipv4.arp arpRequestSent:sum(packetBytes) 0
attr recordingmode sum(packetBytes)
attr source arpRequestSent
attr title "ARP request sent, sum(packetBytes)"
scalar networkNED.wirelessHost[9].ipv4.arp arpResolutionFailed:count 0
attr recordingmode count
attr title "ARP failed resolutions, count"
scalar networkNED.wirelessHost[9].ipv4.arp arpResolutionCompleted:count 0
attr recordingmode count
attr title "ARP completed resolutions, count"
scalar networkNED.wirelessHost[9].ipv4.arp arpResolutionInitiated:count 0
attr recordingmode count
attr title "ARP initiated resolutions, count"
par networkNED.wirelessHost[9].ipv4.lp typename "\"inet.common.MessageDispatcher\""
par networkNED.wirelessHost[9].ipv4.lp displayStringTextFormat "\"processed %p pk (%l)\""
par networkNED.wirelessHost[9].ipv4.lp forwardServiceRegistration true
par networkNED.wirelessHost[9].ipv4.lp forwardProtocolRegistration true
par networkNED.wirelessHost[9].ipv4 typename "\"inet.networklayer.ipv4.Ipv4NetworkLayer\""
par networkNED.wirelessHost[9].ipv4 forwarding false
par networkNED.wirelessHost[9].ipv4 multicastForwarding false
par networkNED.wirelessHost[9].ipv4 interfaceTableModule "\"networkNED.wirelessHost[9].interfaceTable\""
par networkNED.wirelessHost[9].ipv4 displayStringTextFormat "\"%i\""
par networkNED.wirelessHost[9].nl typename "\"inet.common.MessageDispatcher\""
par networkNED.wirelessHost[9].nl displayStringTextFormat "\"processed %p pk (%l)\""
par networkNED.wirelessHost[9].nl forwardServiceRegistration true
par networkNED.wirelessHost[9].nl forwardProtocolRegistration true
par networkNED.wirelessHost[9].udp typename "\"inet.transportlayer.udp.Udp\""
par networkNED.wirelessHost[9].udp interfaceTableModule "\"networkNED.wirelessHost[9].interfaceTable\""
par networkNED.wirelessHost[9].udp icmpModule "\"^.ipv4.icmp\""
par networkNED.wirelessHost[9].udp icmpv6Module "\"^.ipv6.icmpv6\""
par networkNED.wirelessHost[9].udp crcMode "\"declared\""
attr enum disabled,declared,computed
par networkNED.wirelessHost[9].udp defaultMulticastLoop true
scalar networkNED.wirelessHost[9].udp packetReceived:count 0
attr interpolationmode none
attr recordingmode count
attr source packetReceived
attr title "packets received, count"
scalar networkNED.wirelessHost[9].udp packetReceived:sum(packetBytes) 0
attr interpolationmode none
attr recordingmode sum(packetBytes)
attr source packetReceived
attr title "packets received, sum(packetBytes)"
scalar networkNED.wirelessHost[9].udp packetSent:count 0
attr interpolationmode none
attr recordingmode count
attr source packetSent
attr title "packets sent, count"
scalar networkNED.wirelessHost[9].udp packetSent:sum(packetBytes) 0
attr interpolationmode none
attr recordingmode sum(packetBytes)
attr source packetSent
attr title "packets sent, sum(packetBytes)"
scalar networkNED.wirelessHost[9].udp passedUpPk:count 0
attr interpolationmode none
attr recordingmode count
attr source packetSentToUpper
attr title "packets passed up, count"
scalar networkNED.wirelessHost[9].udp droppedPkWrongPort:count 0
attr interpolationmode none
attr recordingmode count
attr source packetDropReasonIsNoPortFound(packetDropped)
attr title "packets dropped (wrong port), count"
scalar networkNED.wirelessHost[9].udp droppedPkBadChecksum:count 0
attr interpolationmode none
attr recordingmode count
attr source packetDropReasonIsIncorrectlyReceived(packetDropped)
attr title "packets dropped (checksum error), count"
par networkNED.wirelessHost[9].tcp typename "\"inet.transportlayer.tcp.Tcp\""
par networkNED.wirelessHost[9].tcp crcMode "\"declared\""
attr enum declared,computed
par networkNED.wirelessHost[9].tcp advertisedWindow 7504
par networkNED.wirelessHost[9].tcp delayedAcksEnabled false
par networkNED.wirelessHost[9].tcp nagleEnabled true
par networkNED.wirelessHost[9].tcp limitedTransmitEnabled false
par networkNED.wirelessHost[9].tcp increasedIWEnabled false
par networkNED.wirelessHost[9].tcp sackSupport false
par networkNED.wirelessHost[9].tcp windowScalingSupport false
par networkNED.wirelessHost[9].tcp windowScalingFactor -1
par networkNED.wirelessHost[9].tcp timestampSupport false
par networkNED.wirelessHost[9].tcp mss 536
par networkNED.wirelessHost[9].tcp msl 120s
attr unit s
par networkNED.wirelessHost[9].tcp tcpAlgorithmClass "\"TcpReno\""
par networkNED.wirelessHost[9].tcp useDataNotification false
par networkNED.wirelessHost[9].tcp dupthresh 3
par networkNED.wirelessHost[9].tcp initialSsthresh 4294967295
par networkNED.wirelessHost[9].tcp stopOperationExtraTime 0s
attr unit s
par networkNED.wirelessHost[9].tcp stopOperationTimeout 2s
attr unit s
par networkNED.wirelessHost[9].tcp ecnWillingness false
par networkNED.wirelessHost[9].tcp dctcpGamma 0.0625
par networkNED.wirelessHost[9].tn typename "\"inet.common.MessageDispatcher\""
par networkNED.wirelessHost[9].tn displayStringTextFormat "\"processed %p pk (%l)\""
par networkNED.wirelessHost[9].tn forwardServiceRegistration true
par networkNED.wirelessHost[9].tn forwardProtocolRegistration true
par networkNED.wirelessHost[9].at typename "\"inet.common.MessageDispatcher\""
par networkNED.wirelessHost[9].at displayStringTextFormat "\"processed %p pk (%l)\""
par networkNED.wirelessHost[9].at forwardServiceRegistration true
par networkNED.wirelessHost[9].at forwardProtocolRegistration true
par networkNED.wirelessHost[9] typename "\"inet.node.inet.WirelessHost\""
par networkNED.wirelessHost[9] hasStatus false
par networkNED.wirelessHost[9] osgModel "\"\""
par networkNED.wirelessHost[9] osgModelColor "\"\""
par networkNED.wirelessHost[9] canvasImage "\"\""
par networkNED.wirelessHost[9] canvasImageColor "\"\""
par networkNED.wirelessHost[9] recordPcap false
par networkNED.wirelessHost[9] numPcapRecorders 0
par networkNED.wirelessHost[9] numLoInterfaces 1
par networkNED.wirelessHost[9] numWlanInterfaces 1
par networkNED.wirelessHost[9] numEthInterfaces 0
par networkNED.wirelessHost[9] numPppInterfaces 0
par networkNED.wirelessHost[9] numTunInterfaces 0
par networkNED.wirelessHost[9] numVirtInterfaces 0
par networkNED.wirelessHost[9] fcsMode "\"declared\""
attr enum declared,computed
par networkNED.wirelessHost[9] hasIpv4 true
par networkNED.wirelessHost[9] hasIpv6 false
par networkNED.wirelessHost[9] hasGn false
par networkNED.wirelessHost[9] forwarding false
par networkNED.wirelessHost[9] multicastForwarding false
par networkNED.wirelessHost[9] hasUdp true
par networkNED.wirelessHost[9] hasTcp true
par networkNED.wirelessHost[9] hasSctp false
par networkNED.wirelessHost[9] numApps 0
par networkNED typename "\"networkNED\""

